/*--------------------------------*- C++ -*----------------------------------*\
| =========                 |                                                 |
| \\      /  F ield         | OpenFOAM: The Open Source CFD Toolbox           |
|  \\    /   O peration     | Version:  5.x                                   |
|   \\  /    A nd           | Web:      www.OpenFOAM.org                      |
|    \\/     M anipulation  |                                                 |
\*---------------------------------------------------------------------------*/
FoamFile
{
    version     2.0;
    format      ascii;
    class       extendedFeatureEdgeMesh;
    location    "constant/extendedFeatureEdgeMesh";
    object      art.extendedFeatureEdgeMesh;
}
// * * * * * * * * * * * * * * * * * * * * * * * * * * * * * * * * * * * * * //

// points

139
(
(-17 -14.5010004 0)
(-17 14.5010004 20)
(-17 14.5010004 0)
(-17 -14.5010004 20)
(17 -14.5010004 20)
(17 -14.5010004 0)
(17 14.5010004 0)
(17 14.5010004 20)
(0.04399999976 3.424999952 59.52899933)
(0.40200001 3.352999926 59.5379982)
(2.305999994 -2.75999999 0)
(1.585999966 -2.154000044 0)
(2.96600008 -5.414000034 0)
(3.030999899 -4.473999977 0)
(2.803999901 -3.559000015 0)
(0.7149999738 -1.799999952 0)
(1.215000033 -7.508999825 0)
(2.010999918 -7.008999825 0)
(2.61500001 -6.288000107 0)
(0.3030000031 -7.736000061 0)
(-0.2220000029 -1.73300004 0)
(-1.133999944 -1.962000012 0)
(-1.92900002 -2.460999966 0)
(-2.532999992 -3.183000088 0)
(-2.884000063 -4.056000233 0)
(-2.950000048 -4.997000217 0)
(-2.721999884 -5.910999775 0)
(-0.6340000033 -7.671000004 0)
(-2.223999977 -6.710999966 0)
(-1.504999995 -7.316999912 0)
(-3.339999914 1.14199996 59.40100098)
(-2.989000082 2.015000105 59.4129982)
(2.099999905 -1.139999986 59.59799957)
(1.557000041 -1.792999983 59.56800079)
(2.50999999 -0.1969999969 59.61299896)
(0.8579999804 -3.914999962 41.10900116)
(1.703999996 -3.413000107 41.00500107)
(2.302000046 -2.710999966 40.85800171)
(-3.400000095 0.2689999938 59.39699936)
(-3.404000044 0.201000005 59.39199829)
(0.7620000243 -2.296000004 59.5340004)
(-0.0120000001 -4.132999897 41.16899872)
(-3.196000099 -0.5049999952 40.5870018)
(-3.207999945 -0.6819999814 40.60300064)
(-3.028000116 -2.410000086 40)
(-3.256000042 -1.496000051 40)
(-1.81099999 -3.815999985 40)
(-2.530999899 -3.210000038 40)
(10.51099968 3.589999914 40)
(11 0.5 40)
(9.090000153 6.377999783 40)
(6.877999783 8.590000153 40)
(4.090000153 10.01099968 40)
(-3.094000101 -2.095999956 40.89199829)
(-3.036000013 -2.326999903 40.94900131)
(1 10.5 40)
(-2.089999914 10.01099968 40)
(-4.877999783 8.590000153 40)
(-7.090000153 6.377999783 40)
(-1.440000057 1.539000034 40)
(-0.5279999971 1.76699996 40)
(2.411000013 -2.448999882 40.7859993)
(2.654999971 -1.855000019 40.66600037)
(2 0.7409999967 40)
(2.497999907 -0.05799999833 40)
(2.724999905 -0.97299999 40)
(2.660000086 -1.912999988 40)
(2.717000008 -0.9810000062 40.51699829)
(2.463999987 0.02199999988 40.36000061)
(2.163000107 0.5 40.26599884)
(2.002000093 0.7559999824 40.22900009)
(2.671999931 -1.625 40.60300064)
(-0.4359999895 1.771000028 40.11800003)
(-1.360999942 1.572000027 40.15200043)
(-3.262000084 -1.427999973 40.77700043)
(10.51099968 -2.589999914 40)
(-2.234999895 1.039999962 40)
(-2.237999916 1.065999985 40.30699921)
(1.279999971 1.347000003 40)
(6.877999783 -7.590000153 40)
(9.090000153 -5.377999783 40)
(0.4090000093 1.700999975 40)
(1.128000021 3.059999943 59.56100082)
(1.789000034 2.506999969 59.5909996)
(-9 0.5 40)
(-8.51099968 -2.589999914 40)
(-3.190999985 -0.5559999943 40)
(-2.838999987 0.3179999888 40)
(-8.51099968 3.589999914 40)
(-2.842999935 0.3580000103 40.45199966)
(-1.562000036 3.249000072 59.4659996)
(-2.036999941 2.960000038 59.45700073)
(1.705000043 -3.509000063 40)
(0.9079999924 -4.007999897 40)
(0.4219999909 1.705000043 40.11199951)
(-2.384000063 2.74000001 59.43399811)
(1.643000007 1.05400002 40.15200043)
(1.32099998 1.322999954 40.13700104)
(2.308000088 -2.786999941 40)
(-0.003000000026 -4.235000134 40)
(1 -9.5 40)
(4.090000153 -9.01099968 40)
(-4.877999783 -7.590000153 40)
(-2.089999914 -9.01099968 40)
(-0.9399999976 -4.170000076 40)
(-7.090000153 -5.377999783 40)
(-2.678999901 -1.511000037 59.4129982)
(-3.177000046 -0.7120000124 59.40100098)
(-3.388000011 0.1360000074 59.39699936)
(2.299000025 1.736999989 59.61199951)
(2.568000078 0.7730000019 59.61899948)
(-1.960000038 -2.11500001 59.43500137)
(-0.1519999951 -2.529000044 59.4980011)
(-2.539000034 -3.115999937 41.07600021)
(-1.820000052 -3.714999914 41.1570015)
(-1.085000038 -2.467000008 59.46699905)
(-0.949000001 -4.065999985 41.18799973)
(-1.169999957 3.713999987 59.39699936)
(-0.67900002 3.47300005 59.49399948)
(6.877999783 8.590000153 20)
(4.090000153 10.01099968 20)
(11 0.5 20)
(10.51099968 3.589999914 20)
(9.090000153 6.377999783 20)
(1 10.5 20)
(9.090000153 -5.377999783 20)
(10.51099968 -2.589999914 20)
(6.877999783 -7.590000153 20)
(1 -9.5 20)
(4.090000153 -9.01099968 20)
(-2.089999914 10.01099968 20)
(-4.877999783 8.590000153 20)
(-7.090000153 6.377999783 20)
(-8.51099968 3.589999914 20)
(-9 0.5 20)
(-7.090000153 -5.377999783 20)
(-4.877999783 -7.590000153 20)
(-2.089999914 -9.01099968 20)
(-8.51099968 -2.589999914 20)
)

// edges

144
(
(2 0)
(1 2)
(0 3)
(3 1)
(4 3)
(0 5)
(5 4)
(10 11)
(12 13)
(13 14)
(14 10)
(11 15)
(6 5)
(16 17)
(18 12)
(17 18)
(19 16)
(15 20)
(20 21)
(21 22)
(22 23)
(23 24)
(25 26)
(2 6)
(24 25)
(27 19)
(26 28)
(28 29)
(29 27)
(7 4)
(6 7)
(1 7)
(30 31)
(32 33)
(34 32)
(35 36)
(36 37)
(38 30)
(39 38)
(33 40)
(41 35)
(42 43)
(44 45)
(46 47)
(48 49)
(50 48)
(51 50)
(52 51)
(53 54)
(55 56)
(56 57)
(52 55)
(57 58)
(59 60)
(61 37)
(62 61)
(63 64)
(64 65)
(65 66)
(67 68)
(69 70)
(71 67)
(72 73)
(68 69)
(74 43)
(75 49)
(76 59)
(62 71)
(73 77)
(78 63)
(79 80)
(78 81)
(82 83)
(84 85)
(86 87)
(58 88)
(87 76)
(77 89)
(90 91)
(92 93)
(94 72)
(89 42)
(91 95)
(96 97)
(9 82)
(98 92)
(95 31)
(97 94)
(60 81)
(93 99)
(80 75)
(100 101)
(45 86)
(70 96)
(47 44)
(102 103)
(66 98)
(99 104)
(104 46)
(105 102)
(88 84)
(106 107)
(108 39)
(103 100)
(101 79)
(83 109)
(110 34)
(107 108)
(109 110)
(111 106)
(85 105)
(53 74)
(40 112)
(113 114)
(115 111)
(54 113)
(112 115)
(116 114)
(8 117)
(118 8)
(8 9)
(90 118)
(116 41)
(119 120)
(121 122)
(122 123)
(123 119)
(120 124)
(125 126)
(126 121)
(117 9)
(127 125)
(128 129)
(129 127)
(130 131)
(131 132)
(132 133)
(133 134)
(124 130)
(135 136)
(136 137)
(137 128)
(134 138)
(138 135)
)

// concaveStart mixedStart nonFeatureStart
9 9 10
// internalStart flatStart openStart multipleStart
123 144 144 144
// normals

277
(
(-1 0 0)
(0 0 -1)
(0 1 0)
(-1 0 0)
(0 -1 0)
(0 0 1)
(0 0 1)
(0 -1 0)
(0 0 -1)
(1 0 0)
(0 0 -1)
(-0.6427037726 -0.7636085404 0.06191815348)
(0 0 -1)
(-0.9975245722 0.06897756649 -0.01366832442)
(0 0 -1)
(-0.9704872923 -0.2407657078 0.01364879085)
(0 0 -1)
(-0.8479825995 -0.5285297149 0.03977249675)
(0 0 -1)
(-0.3753736723 -0.9235886469 0.07796548886)
(0 0 -1)
(1 0 0)
(0 -0 -1)
(-0.5302912311 0.8442235176 -0.07796064759)
(0 0 -1)
(-0.9272313336 0.372377845 -0.0397088711)
(0 0 -1)
(-0.7650910909 0.640936574 -0.06193489086)
(0 -0 -1)
(-0.2406298963 0.9667587845 -0.08645637959)
(0 0 -1)
(-0.07105570392 -0.9937205985 0.08643181751)
(0 0 -1)
(0.24262511 -0.9662625009 0.0864282093)
(0 0 -1)
(0.5300078486 -0.8444014419 0.07796079306)
(0 0 -1)
(0.7655296439 -0.6404152432 0.06190864705)
(0 0 -1)
(0.9270829846 -0.3727447182 0.03973052516)
(-0 0 -1)
(0.9701753293 0.2420133931 -0.01376037344)
(-0 0 -1)
(-0 0 -1)
(0.9974550035 -0.06995963451 0.01375374793)
(-0 0 -1)
(0.0689449261 0.993866759 -0.08646075759)
(0 0 -1)
(0.8482813823 0.5280549355 -0.03970744932)
(0 0 -1)
(0.6432282673 0.7631702199 -0.06187577596)
(0 -0 -1)
(0.3753736724 0.9235886471 -0.07796548612)
(0 -0 1)
(0 1 0)
(-0 0 1)
(-0.1292737394 0.03835899907 0.9908667355)
(0.9268930709 -0.3732144045 0.039752275)
(0.1690970212 -0.1850848811 0.968064969)
(-0.7660219517 0.6398267421 -0.06190403551)
(0.2172404938 -0.1098798928 0.9699139018)
(-0.9159571574 0.3989313186 -0.04331615054)
(0.1307515138 -0.4075833346 -0.9037587438)
(-0.5158058991 0.8531786477 -0.07765609758)
(0.2203393612 -0.3761524819 -0.8999777088)
(-0.76614398 0.6396825742 -0.06188381193)
(-0.1513282821 0.005869715042 0.9884661337)
(0.9975493922 -0.06862283896 0.01364243392)
(-0.4229694982 -0.04169165555 0.9051842959)
(0.9981286388 -0.05968946501 0.0132811226)
(0.09978241711 -0.2232508494 0.9696404114)
(-0.5306696459 0.8439951638 -0.07785814284)
(0.04053514545 -0.4122622159 -0.9101630443)
(-0.2477397886 0.9649945258 -0.0860846226)
(-0.1567282804 -0.07836491867 -0.9845278999)
(0.9977002329 -0.06641696028 0.01352895585)
(0 0 1)
(0.9701754187 0.2420130361 -0.01376035017)
(0 0 1)
(0.6427044744 0.7636092478 -0.06190214244)
(0.9877084624 0.1563073683 -0)
(0 0 1)
(0.8909492982 0.4541027945 0)
(0 0 1)
(0.7071067812 0.7071067812 0)
(0 0 1)
(0.4541028253 0.8909492825 0)
(0 0 1)
(-0.3021452626 -0.2992084954 -0.9050870215)
(0.9705917769 0.2403481551 -0.0135781788)
(0 0 1)
(-0.1563073683 0.9877084624 0)
(-0 0 1)
(-0.4541027945 0.8909492982 0)
(0 0 1)
(0.1563073565 0.9877084642 -0)
(-0 0 1)
(-0.7071067812 0.7071067812 0)
(0 0 1)
(0.2416281946 -0.9665131573 0.08641835692)
(-0.9263925996 0.3744374081 -0.03991714916)
(0.2414456972 -0.3492644999 -0.9053829491)
(-0.9270649388 0.372791073 -0.03971668663)
(0.3306026407 -0.3154934728 -0.8894749926)
(0 -0 1)
(-0.8479825906 -0.528529729 0.03977249767)
(0 -0 1)
(-0.9704872941 -0.2407657005 0.01364879037)
(-0 0 1)
(-0.9975245719 0.06897757084 -0.0136683247)
(0.2268699859 -0.09450086221 -0.9693294572)
(-0.9700668241 -0.2423933697 0.0146905071)
(0.2586778665 0.02311691361 -0.9656869937)
(-0.8483767006 -0.5279973025 0.03841643432)
(0.2564140269 -0.1455250463 -0.9555492178)
(-0.9975980365 0.06783704032 -0.01401048004)
(-0.06367722586 0.1268608281 -0.9898745078)
(0.2125762228 -0.9732886443 0.0867211874)
(0.3220504129 0.01664707553 -0.9465761493)
(-0.8489619632 -0.5270636313 0.03830814111)
(0.9975216743 -0.06902317287 0.01364957368)
(-0.3794284184 -0.1840248845 -0.9067353071)
(0 0 1)
(0.9877084624 -0.1563073683 0)
(0 0 1)
(0.5300080536 -0.8444013136 0.07796078908)
(0.3389099676 -0.2717656794 -0.9007127452)
(-0.9974577483 0.06981906987 -0.01425965532)
(-0.2306409052 0.1033709499 -0.9675325419)
(0.5086944077 -0.8572476687 0.07972724807)
(0 -0 1)
(-0.6427038097 -0.7636085093 0.06191815162)
(0 -0 1)
(0.7071067812 -0.7071067812 0)
(-0.3753735748 -0.9235886864 0.07796549059)
(0 -0 1)
(0.1330735775 0.21158802 0.9682571625)
(-0.6420856593 -0.7641185224 0.06203942102)
(0 -0 1)
(-0.9877084624 -0.1563073683 0)
(0 0 1)
(0.9268621685 -0.3732900319 0.03976270621)
(-0 0 1)
(-0.8909492982 0.4541027945 0)
(0 0 1)
(0.7655295163 -0.640415395 0.0619086547)
(-0.2847947204 0.04727995466 -0.9574218366)
(0.765011189 -0.6410311869 0.06194270072)
(0.5170658789 -0.8523042989 0.0788686182)
(-0.2078332388 0.3127349166 0.9268237248)
(-0 0 1)
(-0.5290516534 0.8449986668 -0.0779846218)
(-0.001060278168 0.07686432991 -0.9970409975)
(-0.07581021737 -0.9933799261 0.0863083618)
(-0.2878074821 -0.03200654835 -0.9571532971)
(0.9269959609 -0.3729596072 0.03974443159)
(0.5301378577 -0.8443215696 0.07794189466)
(-0.1794599926 0.1819725459 0.9667885516)
(0.1816745144 0.163399554 -0.9696880718)
(-0.6415875538 -0.7645404487 0.06199446007)
(0.06597530894 0.2395204932 0.9686470936)
(-0.3752358938 -0.9236441832 0.07797080702)
(-0 0 1)
(-0.7660530155 0.6397921393 -0.06187726504)
(0.7654338111 -0.6405335122 0.06187002953)
(-0.1566766758 0.1022901804 0.9823386067)
(0.05461739738 0.0633169319 -0.9964978204)
(-0.3917202501 -0.9167645362 0.07808988949)
(0 -0 1)
(-0.07000058099 -0.9937963636 0.08642167738)
(-0 0 1)
(-0.2408785584 0.9666966354 -0.08645886444)
(0 -0 1)
(0.8909492982 -0.4541027945 0)
(0 0 1)
(0.1563073565 -0.9877084642 0)
(0 0 1)
(0.9975242378 -0.06897779637 0.01369155417)
(0.251434256 0.05319312721 -0.9664115615)
(-0.6452818319 -0.7614588074 0.0615779355)
(0 0 1)
(0.8487584714 0.5272914625 -0.03965817391)
(-0 0 1)
(-0.4541027945 -0.8909492982 -0)
(0 0 1)
(-0.926862164 0.3732900428 -0.03976270685)
(0 0 1)
(0.06894492675 0.9938667589 -0.08646075759)
(0 0 1)
(0.3753736724 0.9235886471 -0.07796548612)
(0 -0 1)
(-0.7071067812 -0.7071067812 -0)
(-0 0 1)
(-0.9877084624 0.1563073683 0)
(-0.1192630597 -0.05945281483 0.991081069)
(0.8482513378 0.5281007616 -0.03973982329)
(-0.4231182398 -0.03448999291 0.9054178017)
(0.9711656532 0.2380372082 -0.01324996424)
(0 0 1)
(-0.1563073683 -0.9877084624 0)
(0 0 1)
(0.4541028253 -0.8909492825 0)
(0.1911659672 0.1530585989 0.9695507404)
(-0.8335051007 -0.5509181977 0.04193312066)
(0.2458753415 -0.02069667732 0.9690804734)
(-0.9981297268 0.05976167798 -0.01286819406)
(-0.1417438026 -0.03059978217 0.9894303148)
(0.9703351068 0.2413747661 -0.01371141035)
(0.2331478868 0.072100745 0.9697646856)
(-0.9631134059 -0.2686388246 0.01567639327)
(-0.1529721825 -0.146495061 0.9773119811)
(0.6430935781 0.7632818709 -0.06189858952)
(0 -0 1)
(-0.8909492982 -0.4541027945 -0)
(0.9702654913 0.2416525085 -0.01374559761)
(-0.3471757371 -0.2432334956 -0.90570772)
(0.0227385187 -0.2391754447 0.9707100836)
(-0.2429023315 0.9661946085 -0.08640854)
(-0.187879105 -0.3496367524 -0.9178537919)
(0.6429591211 0.7633949795 -0.06190051615)
(-0.1198572268 -0.209730104 0.9703852476)
(0.3745347228 0.9239255163 -0.07800885718)
(-0.2592437216 -0.3105061548 -0.9145373807)
(0.8483291293 0.5279760914 -0.0397358177)
(-0.04745868067 -0.2278782483 0.972532353)
(0.06891696499 0.9938714978 -0.08642857106)
(0.3750244663 0.9237263225 -0.07801493953)
(-0.1343198281 -0.412868208 -0.9008318525)
(-0.02365516635 0.3314285213 0.9431837405)
(0.1712318128 0.9011719422 0.3982069775)
(-0.07017143173 -0.9937632432 0.0866636403)
(-0.198491081 -0.9766119408 0.08264628099)
(-0.08579117054 0.2166265811 0.9724776601)
(0.2423198921 -0.9662053148 0.08791108879)
(-0.04860456113 -0.4231535123 -0.9047533927)
(0.0693114925 0.9938427779 -0.08644333326)
(0.4541028253 0.8909492825 -0)
(0 -0 1)
(0.9877084624 0.1563073683 0)
(0 0 1)
(0.8909492982 0.4541027945 -0)
(0 -0 1)
(0.7071067812 0.7071067812 0)
(-0 0 1)
(0.1563073565 0.9877084642 0)
(0 -0 1)
(0.8909492982 -0.4541027945 0)
(-0 0 1)
(0.9877084624 -0.1563073683 0)
(0 0 1)
(-0.01194179216 0.3182414065 0.9479344918)
(0.7071067812 -0.7071067812 0)
(0 0 1)
(0.1563073565 -0.9877084642 0)
(0 0 1)
(0.4541028253 -0.8909492825 0)
(0 0 1)
(-0.4541027945 0.8909492982 0)
(0 0 1)
(-0.7071067812 0.7071067812 0)
(0 0 1)
(-0.8909492982 0.4541027945 0)
(0 0 1)
(-0.9877084624 0.1563073683 0)
(0 -0 1)
(-0.1563073683 0.9877084624 0)
(0 0 1)
(-0.7071067812 -0.7071067812 0)
(0 0 1)
(-0.4541027945 -0.8909492982 -0)
(0 0 1)
(-0.1563073683 -0.9877084624 0)
(0 0 1)
(-0.9877084624 -0.1563073683 0)
(0 0 1)
(-0.8909492982 -0.4541027945 0)
(0 0 1)
)

// normal volume types

277
(
0
0
0
0
0
0
0
0
0
0
0
0
0
0
0
0
0
0
0
0
0
0
0
0
0
0
0
0
0
0
0
0
0
0
0
0
0
0
0
0
0
0
0
0
0
0
0
0
0
0
0
0
0
0
0
0
0
0
0
0
0
0
0
0
0
0
0
0
0
0
0
0
0
0
0
0
0
0
0
0
0
0
0
0
0
0
0
0
0
0
0
0
0
0
0
0
0
0
0
0
0
0
0
0
0
0
0
0
0
0
0
0
0
0
0
0
0
0
0
0
0
0
0
0
0
0
0
0
0
0
0
0
0
0
0
0
0
0
0
0
0
0
0
0
0
0
0
0
0
0
0
0
0
0
0
0
0
0
0
0
0
0
0
0
0
0
0
0
0
0
0
0
0
0
0
0
0
0
0
0
0
0
0
0
0
0
0
0
0
0
0
0
0
0
0
0
0
0
0
0
0
0
0
0
0
0
0
0
0
0
0
0
0
0
0
0
0
0
0
0
0
0
0
0
0
0
0
0
0
0
0
0
0
0
0
0
0
0
0
0
0
0
0
0
0
0
0
0
0
0
0
0
0
0
0
0
0
0
0
0
0
0
0
0
0
0
0
0
0
0
0
0
0
0
0
0
0
)

// normalDirections

144
(
2(1 -1)
2(1 -1)
2(1 -1)
2(1 -1)
2(1 -1)
2(1 -1)
2(1 -1)
2(1 -1)
2(1 -1)
2(1 -1)
2(1 -1)
2(1 -1)
2(1 -1)
2(1 -1)
2(1 -1)
2(1 -1)
2(1 -1)
2(1 -1)
2(1 -1)
2(1 -1)
2(1 -1)
2(1 -1)
2(1 -1)
2(1 -1)
2(1 -1)
2(1 -1)
2(1 -1)
2(1 -1)
2(1 -1)
2(1 -1)
2(1 -1)
2(1 -1)
2(1 -1)
2(1 -1)
2(1 -1)
2(1 -1)
2(1 -1)
2(1 -1)
2(1 -1)
2(1 -1)
2(1 -1)
2(1 -1)
2(1 -1)
2(1 -1)
2(1 -1)
2(1 -1)
2(1 -1)
2(1 -1)
2(1 -1)
2(1 -1)
2(1 -1)
2(1 -1)
2(1 -1)
2(1 -1)
2(1 -1)
2(1 -1)
2(1 -1)
2(1 -1)
2(1 -1)
2(1 -1)
2(1 -1)
2(1 -1)
2(1 -1)
2(1 -1)
2(1 -1)
2(1 -1)
2(1 -1)
2(1 -1)
2(1 -1)
2(1 -1)
2(1 -1)
2(1 -1)
2(1 -1)
2(1 -1)
2(1 -1)
2(1 -1)
2(1 -1)
2(1 -1)
2(1 -1)
2(1 -1)
2(1 -1)
2(1 -1)
2(1 -1)
2(1 -1)
2(1 -1)
2(1 -1)
2(1 -1)
2(1 -1)
2(1 -1)
2(1 -1)
2(1 -1)
2(1 -1)
2(1 -1)
2(1 -1)
2(1 -1)
2(1 -1)
2(1 -1)
2(1 -1)
2(1 -1)
2(1 -1)
2(1 -1)
2(1 -1)
2(1 -1)
2(1 -1)
2(1 -1)
2(1 -1)
2(1 -1)
2(1 -1)
2(1 -1)
2(1 -1)
2(1 -1)
2(1 -1)
2(1 -1)
2(1 -1)
2(1 -1)
2(1 -1)
2(1 -1)
2(1 -1)
2(1 -1)
2(1 -1)
2(1 -1)
2(1 -1)
2(1 -1)
2(1 -1)
2(1 -1)
2(1 -1)
2(1 -1)
2(1 -1)
2(1 -1)
2(1 -1)
2(1 -1)
2(1 -1)
2(1 -1)
2(1 -1)
2(1 -1)
2(1 -1)
2(1 -1)
2(1 -1)
2(1 -1)
2(1 -1)
2(1 -1)
2(1 -1)
2(1 -1)
2(1 -1)
)

// edgeNormals

144
(
2(0 1)
2(0 2)
2(3 4)
2(3 5)
2(4 6)
2(7 8)
2(7 9)
2(10 11)
2(12 13)
2(14 15)
2(16 17)
2(18 19)
2(20 21)
2(22 23)
2(24 25)
2(26 27)
2(28 29)
2(30 31)
2(32 33)
2(34 35)
2(36 37)
2(38 39)
2(40 41)
2(42 2)
2(43 44)
2(45 46)
2(47 48)
2(49 50)
2(51 52)
2(9 53)
2(21 54)
2(54 55)
2(56 57)
2(58 59)
2(60 61)
2(62 63)
2(64 65)
2(66 67)
2(68 69)
2(70 71)
2(72 73)
2(74 75)
2(76 77)
2(78 79)
2(80 81)
2(82 83)
2(84 85)
2(86 87)
2(88 89)
2(90 91)
2(92 93)
2(94 95)
2(96 97)
2(98 99)
2(100 101)
2(102 103)
2(104 105)
2(106 107)
2(108 109)
2(110 111)
2(112 113)
2(114 115)
2(116 117)
2(118 119)
2(120 121)
2(122 123)
2(124 125)
2(126 127)
2(128 129)
2(130 131)
2(132 133)
2(134 135)
2(136 137)
2(138 139)
2(140 141)
2(142 143)
2(144 145)
2(146 147)
2(148 149)
2(150 151)
2(152 153)
2(154 155)
2(156 157)
2(158 159)
2(160 161)
2(162 163)
2(164 165)
2(166 167)
2(168 169)
2(170 171)
2(172 173)
2(174 175)
2(176 177)
2(178 179)
2(180 181)
2(182 183)
2(184 185)
2(186 187)
2(188 189)
2(190 191)
2(192 193)
2(194 195)
2(196 197)
2(198 199)
2(200 201)
2(202 203)
2(204 205)
2(206 207)
2(208 209)
2(210 211)
2(212 213)
2(214 215)
2(216 217)
2(218 219)
2(220 221)
2(222 223)
2(224 225)
2(226 227)
2(228 229)
2(228 230)
2(229 231)
2(232 233)
2(234 235)
2(236 237)
2(238 239)
2(240 241)
2(242 243)
2(244 245)
2(246 247)
2(248 249)
2(250 229)
2(251 252)
2(253 254)
2(255 256)
2(257 258)
2(259 260)
2(261 262)
2(263 264)
2(265 266)
2(267 268)
2(269 270)
2(271 272)
2(273 274)
2(275 276)
)

// featurePointNormals

10
(
3(0 1 4)
3(0 2 5)
3(0 1 2)
3(3 4 5)
3(4 6 9)
3(7 8 9)
3(20 21 2)
3(9 53 54)
4(228 229 230 231)
5(160 161 229 231 250)
)

// featurePointEdges

10
(
3(2 5 0)
3(3 31 1)
3(0 23 1)
3(2 4 3)
3(6 29 4)
3(5 12 6)
3(12 30 23)
3(30 31 29)
3(118 120 119)
3(84 120 130)
)

// regionEdges
0()


// ************************************************************************* //
