/*--------------------------------*- C++ -*----------------------------------*\
| =========                 |                                                 |
| \\      /  F ield         | OpenFOAM: The Open Source CFD Toolbox           |
|  \\    /   O peration     | Version:  5                                     |
|   \\  /    A nd           | Web:      www.OpenFOAM.org                      |
|    \\/     M anipulation  |                                                 |
\*---------------------------------------------------------------------------*/
FoamFile
{
    version     2.0;
    format      ascii;
    class       dictionary;
    object      blockMeshDict;
}
// * * * * * * * * * * * * * * * * * * * * * * * * * * * * * * * * * * * * * //

convertToMeters 1;

vertices
(
    ( -0.735  -0.62 -0.205)
    (  0.31   -0.62 -0.205)
    (  0.31   0.44 -0.205)
    ( -0.735  0.44 -0.205)
    ( -0.735 -0.62 2.18)
    (  0.31  -0.62 2.18)
    (  0.31   0.44 2.18)
    ( -0.735  0.44 2.18)
);

blocks
(
    hex (0 1 2 3 4 5 6 7) (25 25 25) simpleGrading (1 1 1)
);

edges
(
);

boundary
(
    allBoundary
    {
        type wall;
        faces
        (
           
            (0 4 7 3)
            (2 6 5 1)
            (1 5 4 0)
	    (3 7 6 2)



        );
    }
   ceiling
    {
        type patch;
        faces
        (
             
	    (4 5 6 7)


        );
    }
  inlet
    {
        type patch;
        faces
        (
             
            (0 3 2 1)


        );
    }
  
);

// ************************************************************************* //
