/*--------------------------------*- C++ -*----------------------------------*\
| =========                 |                                                 |
| \\      /  F ield         | OpenFOAM: The Open Source CFD Toolbox           |
|  \\    /   O peration     | Version:  5.x                                   |
|   \\  /    A nd           | Web:      www.OpenFOAM.org                      |
|    \\/     M anipulation  |                                                 |
\*---------------------------------------------------------------------------*/
FoamFile
{
    version     2.0;
    format      binary;
    class       polyBoundaryMesh;
    location    "constant/polyMesh";
    object      boundary;
}
// * * * * * * * * * * * * * * * * * * * * * * * * * * * * * * * * * * * * * //

4
(
    allBoundary
    {
        type            wall;
        inGroups        1(wall);
        nFaces          3675;
        startFace       164281;
    }
    ceiling
    {
        type            patch;
        nFaces          1330;
        startFace       167956;
    }
    inlet
    {
        type            patch;
        nFaces          184;
        startFace       169286;
    }
    box
    {
        type            wall;
        inGroups        1(wall);
        nFaces          15143;
        startFace       169470;
    }
)

// ************************************************************************* //
