/*--------------------------------*- C++ -*----------------------------------*\
| =========                 |                                                 |
| \\      /  F ield         | OpenFOAM: The Open Source CFD Toolbox           |
|  \\    /   O peration     | Version:  5.x                                   |
|   \\  /    A nd           | Web:      www.OpenFOAM.org                      |
|    \\/     M anipulation  |                                                 |
\*---------------------------------------------------------------------------*/
FoamFile
{
    version     2.0;
    format      ascii;
    class       featureEdgeMesh;
    location    "constant/triSurface";
    object      art.eMesh;
}
// * * * * * * * * * * * * * * * * * * * * * * * * * * * * * * * * * * * * * //


// points:

139
(
(-17 -14.5010004 0)
(-17 14.5010004 20)
(-17 14.5010004 0)
(-17 -14.5010004 20)
(17 -14.5010004 20)
(17 -14.5010004 0)
(17 14.5010004 0)
(17 14.5010004 20)
(0.04399999976 3.424999952 59.52899933)
(0.40200001 3.352999926 59.5379982)
(2.305999994 -2.75999999 0)
(1.585999966 -2.154000044 0)
(2.96600008 -5.414000034 0)
(3.030999899 -4.473999977 0)
(2.803999901 -3.559000015 0)
(0.7149999738 -1.799999952 0)
(1.215000033 -7.508999825 0)
(2.010999918 -7.008999825 0)
(2.61500001 -6.288000107 0)
(0.3030000031 -7.736000061 0)
(-0.2220000029 -1.73300004 0)
(-1.133999944 -1.962000012 0)
(-1.92900002 -2.460999966 0)
(-2.532999992 -3.183000088 0)
(-2.884000063 -4.056000233 0)
(-2.950000048 -4.997000217 0)
(-2.721999884 -5.910999775 0)
(-0.6340000033 -7.671000004 0)
(-2.223999977 -6.710999966 0)
(-1.504999995 -7.316999912 0)
(-3.339999914 1.14199996 59.40100098)
(-2.989000082 2.015000105 59.4129982)
(2.099999905 -1.139999986 59.59799957)
(1.557000041 -1.792999983 59.56800079)
(2.50999999 -0.1969999969 59.61299896)
(0.8579999804 -3.914999962 41.10900116)
(1.703999996 -3.413000107 41.00500107)
(2.302000046 -2.710999966 40.85800171)
(-3.400000095 0.2689999938 59.39699936)
(-3.404000044 0.201000005 59.39199829)
(0.7620000243 -2.296000004 59.5340004)
(-0.0120000001 -4.132999897 41.16899872)
(-3.196000099 -0.5049999952 40.5870018)
(-3.207999945 -0.6819999814 40.60300064)
(-3.028000116 -2.410000086 40)
(-3.256000042 -1.496000051 40)
(-1.81099999 -3.815999985 40)
(-2.530999899 -3.210000038 40)
(10.51099968 3.589999914 40)
(11 0.5 40)
(9.090000153 6.377999783 40)
(6.877999783 8.590000153 40)
(4.090000153 10.01099968 40)
(-3.094000101 -2.095999956 40.89199829)
(-3.036000013 -2.326999903 40.94900131)
(1 10.5 40)
(-2.089999914 10.01099968 40)
(-4.877999783 8.590000153 40)
(-7.090000153 6.377999783 40)
(-1.440000057 1.539000034 40)
(-0.5279999971 1.76699996 40)
(2.411000013 -2.448999882 40.7859993)
(2.654999971 -1.855000019 40.66600037)
(2 0.7409999967 40)
(2.497999907 -0.05799999833 40)
(2.724999905 -0.97299999 40)
(2.660000086 -1.912999988 40)
(2.717000008 -0.9810000062 40.51699829)
(2.463999987 0.02199999988 40.36000061)
(2.163000107 0.5 40.26599884)
(2.002000093 0.7559999824 40.22900009)
(2.671999931 -1.625 40.60300064)
(-0.4359999895 1.771000028 40.11800003)
(-1.360999942 1.572000027 40.15200043)
(-3.262000084 -1.427999973 40.77700043)
(10.51099968 -2.589999914 40)
(-2.234999895 1.039999962 40)
(-2.237999916 1.065999985 40.30699921)
(1.279999971 1.347000003 40)
(6.877999783 -7.590000153 40)
(9.090000153 -5.377999783 40)
(0.4090000093 1.700999975 40)
(1.128000021 3.059999943 59.56100082)
(1.789000034 2.506999969 59.5909996)
(-9 0.5 40)
(-8.51099968 -2.589999914 40)
(-3.190999985 -0.5559999943 40)
(-2.838999987 0.3179999888 40)
(-8.51099968 3.589999914 40)
(-2.842999935 0.3580000103 40.45199966)
(-1.562000036 3.249000072 59.4659996)
(-2.036999941 2.960000038 59.45700073)
(1.705000043 -3.509000063 40)
(0.9079999924 -4.007999897 40)
(0.4219999909 1.705000043 40.11199951)
(-2.384000063 2.74000001 59.43399811)
(1.643000007 1.05400002 40.15200043)
(1.32099998 1.322999954 40.13700104)
(2.308000088 -2.786999941 40)
(-0.003000000026 -4.235000134 40)
(1 -9.5 40)
(4.090000153 -9.01099968 40)
(-4.877999783 -7.590000153 40)
(-2.089999914 -9.01099968 40)
(-0.9399999976 -4.170000076 40)
(-7.090000153 -5.377999783 40)
(-2.678999901 -1.511000037 59.4129982)
(-3.177000046 -0.7120000124 59.40100098)
(-3.388000011 0.1360000074 59.39699936)
(2.299000025 1.736999989 59.61199951)
(2.568000078 0.7730000019 59.61899948)
(-1.960000038 -2.11500001 59.43500137)
(-0.1519999951 -2.529000044 59.4980011)
(-2.539000034 -3.115999937 41.07600021)
(-1.820000052 -3.714999914 41.1570015)
(-1.085000038 -2.467000008 59.46699905)
(-0.949000001 -4.065999985 41.18799973)
(-1.169999957 3.713999987 59.39699936)
(-0.67900002 3.47300005 59.49399948)
(6.877999783 8.590000153 20)
(4.090000153 10.01099968 20)
(11 0.5 20)
(10.51099968 3.589999914 20)
(9.090000153 6.377999783 20)
(1 10.5 20)
(9.090000153 -5.377999783 20)
(10.51099968 -2.589999914 20)
(6.877999783 -7.590000153 20)
(1 -9.5 20)
(4.090000153 -9.01099968 20)
(-2.089999914 10.01099968 20)
(-4.877999783 8.590000153 20)
(-7.090000153 6.377999783 20)
(-8.51099968 3.589999914 20)
(-9 0.5 20)
(-7.090000153 -5.377999783 20)
(-4.877999783 -7.590000153 20)
(-2.089999914 -9.01099968 20)
(-8.51099968 -2.589999914 20)
)


// edges:

144
(
(2 0)
(1 2)
(0 3)
(3 1)
(4 3)
(0 5)
(5 4)
(10 11)
(12 13)
(13 14)
(14 10)
(11 15)
(6 5)
(16 17)
(18 12)
(17 18)
(19 16)
(15 20)
(20 21)
(21 22)
(22 23)
(23 24)
(25 26)
(2 6)
(24 25)
(27 19)
(26 28)
(28 29)
(29 27)
(7 4)
(6 7)
(1 7)
(30 31)
(32 33)
(34 32)
(35 36)
(36 37)
(38 30)
(39 38)
(33 40)
(41 35)
(42 43)
(44 45)
(46 47)
(48 49)
(50 48)
(51 50)
(52 51)
(53 54)
(55 56)
(56 57)
(52 55)
(57 58)
(59 60)
(61 37)
(62 61)
(63 64)
(64 65)
(65 66)
(67 68)
(69 70)
(71 67)
(72 73)
(68 69)
(74 43)
(75 49)
(76 59)
(62 71)
(73 77)
(78 63)
(79 80)
(78 81)
(82 83)
(84 85)
(86 87)
(58 88)
(87 76)
(77 89)
(90 91)
(92 93)
(94 72)
(89 42)
(91 95)
(96 97)
(9 82)
(98 92)
(95 31)
(97 94)
(60 81)
(93 99)
(80 75)
(100 101)
(45 86)
(70 96)
(47 44)
(102 103)
(66 98)
(99 104)
(104 46)
(105 102)
(88 84)
(106 107)
(108 39)
(103 100)
(101 79)
(83 109)
(110 34)
(107 108)
(109 110)
(111 106)
(85 105)
(53 74)
(40 112)
(113 114)
(115 111)
(54 113)
(112 115)
(116 114)
(8 117)
(118 8)
(8 9)
(90 118)
(116 41)
(119 120)
(121 122)
(122 123)
(123 119)
(120 124)
(125 126)
(126 121)
(117 9)
(127 125)
(128 129)
(129 127)
(130 131)
(131 132)
(132 133)
(133 134)
(124 130)
(135 136)
(136 137)
(137 128)
(134 138)
(138 135)
)

// * * * * * * * * * * * * * * * * * * * * * * * * * * * * * * * * * * * * * //


// ************************************************************************* //
