/*--------------------------------*- C++ -*----------------------------------*\
| =========                 |                                                 |
| \\      /  F ield         | OpenFOAM: The Open Source CFD Toolbox           |
|  \\    /   O peration     | Version:  5.x                                   |
|   \\  /    A nd           | Web:      www.OpenFOAM.org                      |
|    \\/     M anipulation  |                                                 |
\*---------------------------------------------------------------------------*/
FoamFile
{
    version     2.0;
    format      ascii;
    class       extendedFeatureEdgeMesh;
    location    "constant/extendedFeatureEdgeMesh";
    object      inlet.extendedFeatureEdgeMesh;
}
// * * * * * * * * * * * * * * * * * * * * * * * * * * * * * * * * * * * * * //

// points

40
(
(-0.6179999709 -2.519000053 -0.1000000015)
(0 -2.395999908 -0.1000000015)
(0.6179999709 -2.519000053 -0.1000000015)
(-1.175999999 -2.874000072 -0.1000000015)
(1.175999999 -2.874000072 -0.1000000015)
(-1.618000031 -3.427000046 -0.1000000015)
(1.618000031 -3.427000046 -0.1000000015)
(-0.6179999709 -2.519000053 0)
(0 -2.395999908 0)
(-1.618000031 -3.427000046 0)
(-1.175999999 -2.874000072 0)
(-1.90199995 -4.124000072 -0.1000000015)
(1.90199995 -4.124000072 -0.1000000015)
(-2 -4.895999908 -0.1000000015)
(2 -4.895999908 -0.1000000015)
(1.90199995 -5.669000149 -0.1000000015)
(1.618000031 -6.366000175 -0.1000000015)
(1.175999999 -6.919000149 -0.1000000015)
(0.6179999709 -7.274000168 -0.1000000015)
(0 -7.395999908 -0.1000000015)
(-0.6179999709 -7.274000168 -0.1000000015)
(-1.175999999 -6.919000149 -0.1000000015)
(-1.618000031 -6.366000175 -0.1000000015)
(-1.90199995 -5.669000149 -0.1000000015)
(-1.90199995 -5.669000149 0)
(-2 -4.895999908 0)
(1.90199995 -5.669000149 0)
(1.618000031 -6.366000175 0)
(0 -7.395999908 0)
(-0.6179999709 -7.274000168 0)
(1.618000031 -3.427000046 0)
(1.90199995 -4.124000072 0)
(-1.90199995 -4.124000072 0)
(-1.618000031 -6.366000175 0)
(-1.175999999 -6.919000149 0)
(0.6179999709 -7.274000168 0)
(1.175999999 -6.919000149 0)
(2 -4.895999908 0)
(1.175999999 -2.874000072 0)
(0.6179999709 -2.519000053 0)
)

// edges

40
(
(0 1)
(1 2)
(3 0)
(2 4)
(5 3)
(4 6)
(7 8)
(9 10)
(11 5)
(6 12)
(13 11)
(12 14)
(14 15)
(15 16)
(16 17)
(17 18)
(19 20)
(18 19)
(20 21)
(21 22)
(22 23)
(23 13)
(10 7)
(24 25)
(26 27)
(28 29)
(30 31)
(32 25)
(9 32)
(24 33)
(33 34)
(34 29)
(28 35)
(35 36)
(36 27)
(26 37)
(37 31)
(30 38)
(38 39)
(39 8)
)

// concaveStart mixedStart nonFeatureStart
0 0 0
// internalStart flatStart openStart multipleStart
40 40 40 40
// normals

76
(
(0 -0 -1)
(-0.1952007053 0.9807633173 0)
(0.1952007053 0.9807633173 0)
(0 0 -1)
(-0.5367776513 0.8437237421 0)
(0 -0 -1)
(0.5367776513 0.8437237421 0)
(0 0 -1)
(-0.7811443181 0.624350506 0)
(0 0 -1)
(0.7811443181 0.624350506 0)
(-0.1952007053 0.9807633173 0)
(0 0 1)
(-0.7811443181 0.624350506 0)
(0 0 1)
(0 -0 -1)
(-0.9260752066 0.3773389877 0)
(0 -0 -1)
(0.9260752066 0.3773389877 0)
(0 0 -1)
(-0.9920388151 0.1259324789 0)
(0 0 -1)
(0.9920388151 0.1259324789 0)
(0 0 -1)
(0.9920591636 -0.1257720789 0)
(0 0 -1)
(0.9260752066 -0.3773389877 0)
(0 0 -1)
(0.7811443181 -0.624350506 0)
(0 0 -1)
(0.5367776513 -0.8437237421 0)
(0 0 -1)
(-0.1936728538 -0.9810661679 0)
(0.1936728538 -0.9810661679 0)
(0 0 -1)
(-0.5367776513 -0.8437237421 -0)
(0 0 -1)
(-0.7811443181 -0.624350506 -0)
(0 0 -1)
(-0.9260752066 -0.3773389877 -0)
(0 0 -1)
(-0.9920591636 -0.1257720789 -0)
(-0.5367776513 0.8437237421 0)
(0 0 1)
(-0.9920591636 -0.1257720789 0)
(0 0 1)
(0.9260752066 -0.3773389877 0)
(0 0 1)
(-0.1936728538 -0.9810661679 0)
(0 0 1)
(0.9260752066 0.3773389877 0)
(0 0 1)
(0 0 1)
(-0.9920388151 0.1259324789 0)
(-0.9260752066 0.3773389877 0)
(0 0 1)
(-0.9260752066 -0.3773389877 0)
(0 0 1)
(-0.7811443181 -0.624350506 0)
(0 0 1)
(-0.5367776513 -0.8437237421 0)
(0 0 1)
(0.1936728538 -0.9810661679 0)
(0 0 1)
(0.5367776513 -0.8437237421 0)
(0 0 1)
(0.7811443181 -0.624350506 0)
(0 0 1)
(0.9920591636 -0.1257720789 0)
(0 0 1)
(0.9920388151 0.1259324789 0)
(0 0 1)
(0.7811443181 0.624350506 0)
(0 0 1)
(0.5367776513 0.8437237421 0)
(0.1952007053 0.9807633173 0)
)

// normal volume types

76
(
0
0
0
0
0
0
0
0
0
0
0
0
0
0
0
0
0
0
0
0
0
0
0
0
0
0
0
0
0
0
0
0
0
0
0
0
0
0
0
0
0
0
0
0
0
0
0
0
0
0
0
0
0
0
0
0
0
0
0
0
0
0
0
0
0
0
0
0
0
0
0
0
0
0
0
0
)

// normalDirections

40
(
2(1 -1)
2(1 -1)
2(1 -1)
2(1 -1)
2(1 -1)
2(1 -1)
2(1 -1)
2(1 -1)
2(1 -1)
2(1 -1)
2(1 -1)
2(1 -1)
2(1 -1)
2(1 -1)
2(1 -1)
2(1 -1)
2(1 -1)
2(1 -1)
2(1 -1)
2(1 -1)
2(1 -1)
2(1 -1)
2(1 -1)
2(1 -1)
2(1 -1)
2(1 -1)
2(1 -1)
2(1 -1)
2(1 -1)
2(1 -1)
2(1 -1)
2(1 -1)
2(1 -1)
2(1 -1)
2(1 -1)
2(1 -1)
2(1 -1)
2(1 -1)
2(1 -1)
2(1 -1)
)

// edgeNormals

40
(
2(0 1)
2(0 2)
2(3 4)
2(5 6)
2(7 8)
2(9 10)
2(11 12)
2(13 14)
2(15 16)
2(17 18)
2(19 20)
2(21 22)
2(23 24)
2(25 26)
2(27 28)
2(29 30)
2(31 32)
2(31 33)
2(34 35)
2(36 37)
2(38 39)
2(40 41)
2(42 43)
2(44 45)
2(46 47)
2(48 49)
2(50 51)
2(52 53)
2(52 54)
2(55 56)
2(57 58)
2(59 60)
2(61 62)
2(63 64)
2(65 66)
2(67 68)
2(69 70)
2(71 72)
2(73 74)
2(12 75)
)

// featurePointNormals
0()
// featurePointEdges
0()
// regionEdges
0()


// ************************************************************************* //
