/*--------------------------------*- C++ -*----------------------------------*\
| =========                 |                                                 |
| \\      /  F ield         | OpenFOAM: The Open Source CFD Toolbox           |
|  \\    /   O peration     | Version:  5.x                                   |
|   \\  /    A nd           | Web:      www.OpenFOAM.org                      |
|    \\/     M anipulation  |                                                 |
\*---------------------------------------------------------------------------*/
FoamFile
{
    version     2.0;
    format      ascii;
    class       extendedFeatureEdgeMesh;
    location    "constant/extendedFeatureEdgeMesh";
    object      inlet.extendedFeatureEdgeMesh;
}
// * * * * * * * * * * * * * * * * * * * * * * * * * * * * * * * * * * * * * //

// points

40
(
(0.4708999991 0.06877999753 -0.009999999776)
(0.4851100147 0.04089999944 -0.009999999776)
(0.4851100147 0.04089999944 -0.02999999933)
(0.4708999991 0.06877999753 -0.02999999933)
(0.2948899865 0.04089999944 -0.02999999933)
(0.2899999917 0.009999999776 -0.02999999933)
(0.2899999917 0.009999999776 -0.009999999776)
(0.2948899865 0.04089999944 -0.009999999776)
(0.4900000095 0.009999999776 -0.009999999776)
(0.4900000095 0.009999999776 -0.02999999933)
(0.3899999857 0.1099999994 -0.02999999933)
(0.359100014 0.1051099971 -0.02999999933)
(0.359100014 0.1051099971 -0.009999999776)
(0.3899999857 0.1099999994 -0.009999999776)
(0.4208999872 -0.08511000127 -0.02999999933)
(0.4487800002 -0.07090000063 -0.02999999933)
(0.4487800002 -0.07090000063 -0.009999999776)
(0.4208999872 -0.08511000127 -0.009999999776)
(0.3091000021 -0.0487800017 -0.02999999933)
(0.331220001 -0.07090000063 -0.02999999933)
(0.331220001 -0.07090000063 -0.009999999776)
(0.3091000021 -0.0487800017 -0.009999999776)
(0.3091000021 0.06877999753 -0.02999999933)
(0.3091000021 0.06877999753 -0.009999999776)
(0.4851100147 -0.02089999989 -0.009999999776)
(0.4851100147 -0.02089999989 -0.02999999933)
(0.4708999991 -0.0487800017 -0.02999999933)
(0.4708999991 -0.0487800017 -0.009999999776)
(0.331220001 0.09089999646 -0.02999999933)
(0.331220001 0.09089999646 -0.009999999776)
(0.2948899865 -0.02089999989 -0.009999999776)
(0.359100014 -0.08511000127 -0.009999999776)
(0.3899999857 -0.09000000358 -0.009999999776)
(0.2948899865 -0.02089999989 -0.02999999933)
(0.4208999872 0.1051099971 -0.02999999933)
(0.4208999872 0.1051099971 -0.009999999776)
(0.4487800002 0.09089999646 -0.02999999933)
(0.4487800002 0.09089999646 -0.009999999776)
(0.3899999857 -0.09000000358 -0.02999999933)
(0.359100014 -0.08511000127 -0.02999999933)
)

// edges

40
(
(0 1)
(2 3)
(4 5)
(6 7)
(1 8)
(9 2)
(10 11)
(12 13)
(14 15)
(16 17)
(18 19)
(20 21)
(22 4)
(7 23)
(8 24)
(25 9)
(26 25)
(24 27)
(28 22)
(23 29)
(30 21)
(20 31)
(31 32)
(32 17)
(16 27)
(33 18)
(30 6)
(15 26)
(11 28)
(29 12)
(34 10)
(13 35)
(5 33)
(36 34)
(35 37)
(36 3)
(37 0)
(38 14)
(39 38)
(39 19)
)

// concaveStart mixedStart nonFeatureStart
0 0 0
// internalStart flatStart openStart multipleStart
40 40 40 40
// normals

76
(
(0.8909490323 0.4541033163 0)
(0 0 1)
(0.8909490323 0.4541033163 0)
(0 0 -1)
(-0.9877085039 0.1563071055 0)
(0 0 -1)
(-0.9877085039 0.1563071055 0)
(0 0 1)
(0.9877085039 0.1563071055 0)
(0 0 1)
(0.9877085039 0.1563071055 0)
(0 0 -1)
(-0.1563074757 0.9877084454 0)
(0 0 -1)
(-0.1563074757 0.9877084454 0)
(0 0 1)
(0.4541027456 -0.8909493231 0)
(0 0 -1)
(0.4541027456 -0.8909493231 0)
(0 0 1)
(-0.7071067812 -0.7071067812 -0)
(0 0 -1)
(-0.7071067812 -0.7071067812 0)
(0 0 1)
(-0.8909490323 0.4541033163 0)
(-0.8909490323 0.4541033163 0)
(0 0 1)
(0.9877085039 -0.1563071055 0)
(0 -0 1)
(0.9877085039 -0.1563071055 0)
(0 0 -1)
(0.8909490568 -0.4541032681 0)
(-0 0 -1)
(0.8909490568 -0.4541032681 0)
(0 0 1)
(-0.7071067812 0.7071067812 0)
(0 0 -1)
(-0.7071067812 0.7071067812 0)
(0 0 1)
(-0.8909490568 -0.4541032681 0)
(0 0 1)
(-0.4541027456 -0.8909493231 0)
(0 0 1)
(-0.1563074757 -0.9877084454 0)
(0 0 1)
(0.1563073286 -0.9877084686 0)
(0 0 1)
(0.7071067812 -0.7071067812 0)
(-0.8909490568 -0.4541032681 -0)
(-0.9877085039 -0.1563071055 -0)
(-0 -0 1)
(0.7071067812 -0.7071067812 0)
(-0 0 -1)
(-0.4541027456 0.8909493231 0)
(0 0 -1)
(-0.4541027456 0.8909493231 0)
(0 0 1)
(0.1563073286 0.9877084686 0)
(0 0 -1)
(0.1563073286 0.9877084686 0)
(0 0 1)
(-0.9877085039 -0.1563071055 0)
(0 0 -1)
(0.4541027456 0.8909493231 0)
(0 0 -1)
(0.4541027456 0.8909493231 0)
(0 0 -1)
(0.7071067812 0.7071067812 0)
(0.7071067812 0.7071067812 0)
(0 0 1)
(0.1563073286 -0.9877084686 0)
(0 0 -1)
(-0.1563074757 -0.9877084454 0)
(0 0 -1)
(0 0 -1)
(-0.4541027456 -0.8909493231 -0)
)

// normal volume types

76
(
0
0
0
0
0
0
0
0
0
0
0
0
0
0
0
0
0
0
0
0
0
0
0
0
0
0
0
0
0
0
0
0
0
0
0
0
0
0
0
0
0
0
0
0
0
0
0
0
0
0
0
0
0
0
0
0
0
0
0
0
0
0
0
0
0
0
0
0
0
0
0
0
0
0
0
0
)

// normalDirections

40
(
2(1 -1)
2(1 -1)
2(1 -1)
2(1 -1)
2(1 -1)
2(1 -1)
2(1 -1)
2(1 -1)
2(1 -1)
2(1 -1)
2(1 -1)
2(1 -1)
2(1 -1)
2(1 -1)
2(1 -1)
2(1 -1)
2(1 -1)
2(1 -1)
2(1 -1)
2(1 -1)
2(1 -1)
2(1 -1)
2(1 -1)
2(1 -1)
2(1 -1)
2(1 -1)
2(1 -1)
2(1 -1)
2(1 -1)
2(1 -1)
2(1 -1)
2(1 -1)
2(1 -1)
2(1 -1)
2(1 -1)
2(1 -1)
2(1 -1)
2(1 -1)
2(1 -1)
2(1 -1)
)

// edgeNormals

40
(
2(0 1)
2(2 3)
2(4 5)
2(6 7)
2(8 9)
2(10 11)
2(12 13)
2(14 15)
2(16 17)
2(18 19)
2(20 21)
2(22 23)
2(24 5)
2(25 26)
2(27 28)
2(29 30)
2(31 32)
2(33 34)
2(35 36)
2(37 38)
2(23 39)
2(40 41)
2(42 43)
2(44 45)
2(46 47)
2(48 21)
2(49 50)
2(51 52)
2(53 54)
2(55 56)
2(57 58)
2(59 60)
2(61 62)
2(63 64)
2(65 60)
2(66 67)
2(68 69)
2(70 71)
2(72 73)
2(74 75)
)

// featurePointNormals
0()
// featurePointEdges
0()
// regionEdges
0()


// ************************************************************************* //
