/*--------------------------------*- C++ -*----------------------------------*\
| =========                 |                                                 |
| \\      /  F ield         | OpenFOAM: The Open Source CFD Toolbox           |
|  \\    /   O peration     | Version:  5.x                                   |
|   \\  /    A nd           | Web:      www.OpenFOAM.org                      |
|    \\/     M anipulation  |                                                 |
\*---------------------------------------------------------------------------*/
FoamFile
{
    version     2.0;
    format      ascii;
    class       featureEdgeMesh;
    location    "constant/triSurface";
    object      art.eMesh;
}
// * * * * * * * * * * * * * * * * * * * * * * * * * * * * * * * * * * * * * //


// points:

318
(
(-7 19 0)
(-7 -10 20)
(-7 -10 0)
(-7 19 20)
(-41 19 20)
(-41 19 0)
(-41 -10 0)
(-41 -10 20)
(-21.7426 6.30307 59.615)
(-21.6674 6.18187 59.6104)
(-21.6526 6.15809 59.6095)
(-21.5832 5.87974 59.6243)
(-21.9844 6.69104 59.6083)
(-21.9081 6.56861 59.6104)
(-22.2725 7.05904 59.5931)
(-22.1501 6.95572 59.5895)
(-22.8703 7.55932 59.5611)
(-22.6356 7.36358 59.5821)
(-23.8289 6.21765 40)
(-23.5908 6.20087 40)
(-25.4398 6.03887 40)
(-24.7595 6.20905 40)
(-23 15 40)
(-26.09 14.511 40)
(-24.5279 6.26698 40)
(-22.5377 7.28147 59.5851)
(-26.2355 5.53954 40)
(-26.3893 5.35554 40)
(-22.8728 7.56034 59.5611)
(-22.9406 7.58794 59.5621)
(-28.878 13.09 40)
(-14.91 10.878 40)
(-17.122 13.09 40)
(-22.0936 5.33658 40.2054)
(-22.3573 5.55411 40.152)
(-23.0428 7.62957 59.5636)
(-22.0001 5.24121 40)
(-21.5025 4.44182 40)
(-23.5034 7.81518 59.5474)
(-23.406 7.77595 59.5508)
(-19.91 14.511 40)
(-13.489 8.09 40)
(-22.3938 5.5846 40.1496)
(-22.6359 5.78727 40.1379)
(-13 5 40)
(-21.3334 3.76199 40)
(-23.7403 7.90971 59.5276)
(-22.0018 5.26119 40.2282)
(-23.743 7.9099 59.5276)
(-24.4447 7.95793 59.5103)
(-24 7.92814 59.5287)
(-24.5227 7.96315 59.5071)
(-24.68 7.97219 59.4939)
(-24.6772 7.9729 59.4939)
(-24.9862 7.89547 59.4925)
(-24.759 6.22046 40.1261)
(-24.7112 6.23228 40.1245)
(-25.0484 7.87989 59.4922)
(-25.5838 7.74346 59.4646)
(-25.5367 7.75546 59.467)
(-26.0547 7.44914 59.4567)
(-26.0202 7.47082 59.4573)
(-25.5888 7.74216 59.4641)
(-21.5053 4.47432 40.3714)
(-21.5663 4.57054 40.3489)
(-21.4382 4.20639 40.4074)
(-26.5025 7.09942 59.4381)
(-26.387 7.23691 59.4339)
(-26.3843 7.24018 59.4338)
(-21.7102 4.79842 40.305)
(-21.8375 5 40.2662)
(-21.4732 4.55414 59.6258)
(-21.4834 4.406 59.6182)
(-26.8588 6.67245 59.4255)
(-21.4904 4.30321 59.6129)
(-21.4422 5 59.6279)
(-21.4529 4.84584 59.6272)
(-22.7215 5.85913 40.1353)
(-22.8936 5.92842 40.1264)
(-21.4251 5.24371 59.6176)
(-22.9415 5.94781 40.1247)
(-23.1382 6.02704 40.1174)
(-21.4262 5.2482 59.6178)
(-21.4391 5.30023 59.62)
(-26.8712 6.65758 59.4251)
(-26.9877 6.51725 59.4127)
(-21.4752 5.44551 59.6264)
(-21.3454 2.64521 40.6664)
(-21.3365 2.76546 40.6295)
(-31.09 10.878 40)
(-32.511 8.09 40)
(-33 5 40)
(-26.9289 4.59496 40)
(-26.8391 4.81821 40)
(-21.5463 5.73124 59.625)
(-27.1912 3.94408 40)
(-17.122 -3.09 40)
(-14.91 -0.878 40)
(-26.9897 6.5124 59.4127)
(-27.1336 6.1558 59.4182)
(-28.878 -3.09 40)
(-26.09 -4.511 40)
(-13.489 1.91 40)
(-27.1389 6.14266 59.4184)
(-21.3285 2.87553 40.603)
(-21.2885 3.43467 40.5255)
(-21.3356 3.7978 40.4727)
(-21.3999 4.05351 40.428)
(-21.2788 3.57182 40.5123)
(-21.2841 3.49653 40.5195)
(-32.511 1.91 40)
(-24.4632 6.27273 40.1185)
(-24.5288 6.2776 40.1214)
(-26.9304 4.64239 40.4802)
(-26.8425 4.85774 40.4516)
(-21.9646 1.47446 40.9066)
(-21.6983 1.78833 40.8578)
(-21.6977 1.78961 40.8575)
(-27.3338 4.41845 59.4064)
(-27.3881 4.63614 59.397)
(-27.3998 4.76894 59.397)
(-27.3841 5 59.4066)
(-21.6104 2.00082 40.7999)
(-21.5685 2.10193 40.7724)
(-25.6269 5.93898 40.19)
(-25.8677 5.79176 40.2319)
(-24.9785 6.16618 40.1333)
(-25.5851 5.96471 40.1848)
(-25.3607 6.07224 40.152)
(-25.4411 6.05346 40.1668)
(-25.9824 5.72159 40.2519)
(-26.2039 5.58706 40.3001)
(-26.2379 5.56645 40.3075)
(-26.3644 5.41725 40.33)
(-25.2966 6.08795 40.1482)
(-26.4871 5.2734 40.3596)
(-26.3893 5.38807 40.336)
(-26.7205 5 40.4157)
(-27.0006 4.47071 40.5031)
(-26.8125 4.89271 40.4428)
(-27.0271 4.406 40.5144)
(-22.1532 1.25416 40.9628)
(-27.3323 4.41229 59.4067)
(-27.4044 4.70098 59.3921)
(-27.4026 4.69389 59.3926)
(-27.3437 5.58971 59.4036)
(-27.3434 5.594 59.4034)
(-22.2605 2.92661 59.5881)
(-22.3396 2.8311 59.5793)
(-27.3405 5.63562 59.4013)
(-27.34 5.64184 59.4009)
(-22.4451 2.70378 59.5675)
(-22.6136 2.5984 59.5703)
(-27.3836 5.00642 59.4066)
(-22.4401 2.70978 59.5681)
(-21.9594 3.28795 59.5996)
(-21.8417 3.42828 59.5953)
(-21.8392 3.43457 59.5957)
(-21.7879 3.56295 59.6042)
(-22.7205 5.84729 40)
(-21.7359 3.69307 59.6129)
(-21.6217 3.97758 59.6174)
(-27.2083 3.81781 40.603)
(-27.2122 3.76416 40.6153)
(-27.2462 3.29 40.7236)
(-21.5667 4.11427 59.6196)
(-19.91 -4.511 40)
(-23 -5 40)
(-31.09 -0.878 40)
(-23.7651 0.32425 40)
(-23.0917 0.492111 40)
(-27.1907 3.84347 59.404)
(-24.6957 0.312875 40)
(-24.0029 0.264777 40)
(-25.5845 0.592237 40)
(-24.94 0.330111 40)
(-25.8113 0.684176 40)
(-23.912 7.9219 59.5284)
(-21.9947 5.24984 40.2299)
(-26.5377 2.87103 59.4258)
(-26.552 2.883 59.4245)
(-26.0968 2.50068 59.4392)
(-27.2059 2.84917 40.815)
(-27.1696 2.70494 40.8399)
(-27.2618 3.07195 40.7766)
(-27.2584 3.11882 40.7627)
(-25.9601 2.38516 59.4349)
(-25.9514 2.38168 59.4354)
(-27.1957 3.99542 40.5868)
(-27.2073 3.83245 40.6011)
(-27.2074 3.83117 40.6012)
(-27.0939 2.40405 40.8917)
(-22.942 5.93746 40)
(-25.5942 2.23844 59.459)
(-25.6316 2.25342 59.4565)
(-24.6732 0.413494 41.1746)
(-24.0118 0.367113 41.1692)
(-24 0.36991 41.1675)
(-23.7875 0.421693 41.152)
(-23.2173 0.560135 41.1107)
(-23.8523 0.405909 41.1567)
(-25.6063 0.698232 41.1512)
(-25.8201 0.785396 41.1565)
(-22.9038 0.709808 41.0809)
(-22.5232 0.942882 41.0217)
(-26.0928 1.01169 41.1143)
(-23.0342 0.629878 41.1013)
(-23.1002 0.589387 41.1116)
(-27.1895 3.83891 59.404)
(-27.1768 3.78768 59.4012)
(-26.8915 3.33069 59.4188)
(-26.8991 3.34278 59.4183)
(-22.303 1.07959 41.0073)
(-22.29 1.0947 41.0035)
(-26.6793 2.98931 59.4128)
(-21.2749 3.52699 40)
(-21.3403 2.5869 40)
(-21.6006 1.9398 40)
(-21.6917 1.71325 40)
(-22.2952 0.991436 40)
(-22.1384 1.17884 40)
(-22.8845 0.622158 40)
(-27.0283 2.08964 40)
(-26.5307 1.29025 40)
(-27.2559 3.00399 40)
(-27.1972 2.76824 40)
(-27.208 3.70287 40)
(-25.1238 2.04771 59.466)
(-23.7838 6.22393 40.1088)
(-23.8284 6.22707 40.1087)
(-23.3564 6.11521 40.1127)
(-23.5635 6.19922 40.1117)
(-23.5916 6.21067 40.112)
(-24 6.23916 40.1085)
(-24.2217 6.25507 40.1116)
(-21.5217 -1.95063 0)
(-21.3854 -1.78764 0)
(-21.1136 -1.11141 0)
(-21.034 -0.913473 0)
(-26.2347 1.12945 41.0925)
(-21.989 -2.50894 0)
(-22.1683 -2.62131 0)
(-23.2415 2.20148 59.5335)
(-23.4952 2.13836 59.5347)
(-23.907 -3.22155 0)
(-23.6966 -3.23616 0)
(-22.9895 -3.05926 0)
(-22.7849 -3.00826 0)
(-25.089 2.03362 59.4665)
(-25.08 2.03306 59.4674)
(-24.8295 -3.09062 0)
(-24.6337 -3.17026 0)
(-26.2244 -2.21064 0)
(-25.505 -2.81671 0)
(-26.7737 -1.20368 0)
(-26.722 -1.41125 0)
(-26.9496 -0.496385 0)
(-24.0049 2.75127 0)
(-24.2216 2.76656 0)
(-25.0796 2.03303 59.4675)
(-24.594 2.00154 59.493)
(-22.4142 2.3464 0)
(-23.0835 2.61888 0)
(-21.6938 1.74032 0)
(-26.8844 0.443703 0)
(-26.9349 -0.28193 0)
(-25.9292 2.03917 0)
(-26.3939 1.4832 0)
(-26.5328 1.31732 0)
(-21.1962 0.940932 0)
(-23.2845 2.70049 0)
(-24.9227 2.59122 0)
(-25.1335 2.53849 0)
(-22.7095 2.53796 59.5665)
(-20.9686 0.0266152 0)
(-21.1442 0.731662 0)
(-26.8037 0.644063 0)
(-23.0302 2.3358 59.5537)
(-23.1159 2.28134 59.5455)
(-24.5297 1.99737 59.4964)
(-24 2.01052 59.5123)
(-24.0727 1.9918 59.5056)
(-24.1522 1.97133 59.4983)
(-24.1432 1.97364 59.4991)
(-23.5823 2.1163 59.5308)
(-23.2342 2.20612 59.5342)
(-24.7189 0.416697 41.175)
(-24.8069 0.422966 41.1757)
(-25.4353 0.629342 41.1586)
(-25.5711 0.683842 41.1504)
(-24.9491 0.434063 41.1879)
(-26.5389 1.38446 41.0764)
(-26.6201 1.51277 41.049)
(-27.0355 2.17269 40.9489)
(-26.7516 1.72071 41.0046)
(-13 5 20)
(-13.489 8.09 20)
(-14.91 10.878 20)
(-17.122 13.09 20)
(-19.91 14.511 20)
(-23 15 20)
(-32.511 8.09 20)
(-33 5 20)
(-32.511 1.91 20)
(-31.5375 0 20)
(-31.09 -0.878 20)
(-23 -5 20)
(-21.3067 -4.73203 20)
(-14.91 -0.878 20)
(-13.489 1.91 20)
(-26.09 -4.511 20)
(-26.09 14.511 20)
(-28.878 13.09 20)
(-31.09 10.878 20)
(-20.833 -4.65707 20)
(-19.91 -4.511 20)
(-17.122 -3.09 20)
(-28.878 -3.09 20)
)


// edges:

322
(
(2 0)
(1 2)
(3 1)
(0 3)
(5 6)
(4 5)
(7 4)
(6 7)
(8 9)
(10 11)
(9 10)
(12 13)
(13 8)
(14 15)
(15 12)
(16 17)
(18 19)
(20 21)
(22 23)
(21 24)
(14 25)
(26 20)
(25 17)
(27 26)
(28 16)
(29 28)
(23 30)
(31 32)
(33 34)
(35 29)
(36 37)
(38 39)
(39 35)
(32 40)
(41 31)
(34 42)
(42 43)
(44 41)
(37 45)
(46 38)
(33 47)
(48 46)
(49 50)
(49 51)
(52 53)
(54 52)
(55 56)
(57 54)
(58 59)
(53 51)
(59 57)
(60 61)
(61 62)
(62 58)
(63 64)
(65 63)
(66 67)
(67 68)
(68 60)
(64 69)
(69 70)
(71 72)
(66 73)
(72 74)
(75 76)
(76 71)
(77 78)
(43 77)
(79 75)
(80 81)
(82 79)
(83 82)
(84 85)
(86 83)
(87 88)
(30 89)
(90 91)
(92 93)
(93 27)
(89 90)
(94 86)
(95 92)
(11 94)
(84 73)
(96 97)
(98 85)
(99 98)
(100 101)
(102 97)
(44 102)
(22 40)
(103 99)
(104 105)
(106 107)
(108 106)
(109 108)
(105 109)
(107 65)
(104 88)
(110 91)
(111 112)
(113 114)
(115 116)
(116 117)
(118 119)
(120 121)
(122 123)
(117 122)
(124 125)
(55 126)
(127 124)
(128 129)
(129 127)
(130 131)
(131 132)
(132 133)
(126 134)
(134 128)
(135 136)
(136 133)
(130 125)
(137 135)
(113 138)
(139 114)
(137 139)
(138 140)
(115 141)
(118 142)
(120 143)
(119 144)
(145 146)
(147 148)
(149 150)
(146 149)
(150 103)
(151 152)
(121 153)
(154 151)
(148 154)
(153 145)
(155 147)
(144 143)
(18 24)
(156 155)
(157 156)
(158 157)
(36 159)
(160 158)
(161 160)
(162 163)
(163 164)
(165 74)
(165 161)
(166 167)
(168 110)
(100 168)
(167 101)
(169 170)
(142 171)
(172 173)
(174 175)
(176 174)
(48 177)
(80 78)
(178 70)
(179 180)
(181 179)
(182 183)
(184 182)
(185 184)
(186 181)
(187 186)
(188 189)
(140 188)
(189 190)
(190 162)
(191 183)
(185 164)
(192 19)
(193 194)
(195 196)
(196 197)
(198 199)
(200 198)
(197 200)
(187 194)
(201 202)
(203 204)
(202 205)
(206 203)
(199 207)
(207 206)
(208 209)
(208 171)
(210 211)
(211 209)
(204 212)
(212 213)
(180 214)
(214 210)
(213 141)
(123 87)
(215 45)
(216 215)
(217 216)
(50 177)
(218 217)
(219 220)
(220 218)
(221 219)
(222 223)
(224 225)
(225 222)
(95 226)
(226 224)
(159 192)
(96 166)
(227 193)
(228 229)
(170 221)
(173 169)
(175 172)
(223 176)
(81 230)
(230 231)
(3 4)
(232 228)
(231 232)
(229 233)
(7 1)
(233 234)
(234 111)
(112 56)
(235 236)
(236 237)
(237 238)
(205 239)
(240 235)
(241 240)
(242 243)
(244 245)
(246 247)
(248 227)
(249 248)
(250 251)
(252 253)
(253 250)
(254 255)
(255 252)
(256 254)
(257 258)
(259 249)
(260 259)
(261 262)
(263 261)
(178 47)
(264 265)
(266 267)
(267 268)
(269 263)
(262 270)
(270 257)
(258 271)
(271 272)
(272 266)
(152 273)
(247 241)
(238 274)
(274 275)
(275 269)
(251 244)
(245 246)
(2 6)
(276 264)
(265 256)
(268 276)
(5 0)
(277 273)
(278 277)
(279 260)
(280 281)
(282 279)
(281 283)
(283 282)
(284 280)
(284 243)
(285 242)
(278 285)
(286 287)
(288 289)
(290 288)
(239 291)
(291 292)
(293 191)
(293 294)
(292 294)
(195 286)
(201 289)
(290 287)
(295 296)
(296 297)
(297 298)
(298 299)
(299 300)
(301 302)
(302 303)
(304 305)
(303 304)
(306 307)
(308 309)
(310 306)
(309 295)
(300 311)
(311 312)
(312 313)
(313 301)
(307 314)
(314 315)
(315 316)
(316 308)
(305 317)
(317 310)
)

// * * * * * * * * * * * * * * * * * * * * * * * * * * * * * * * * * * * * * //


// ************************************************************************* //
