/*--------------------------------*- C++ -*----------------------------------*\
| =========                 |                                                 |
| \\      /  F ield         | OpenFOAM: The Open Source CFD Toolbox           |
|  \\    /   O peration     | Version:  5.x                                   |
|   \\  /    A nd           | Web:      www.OpenFOAM.org                      |
|    \\/     M anipulation  |                                                 |
\*---------------------------------------------------------------------------*/
FoamFile
{
    version     2.0;
    format      ascii;
    class       featureEdgeMesh;
    location    "constant/triSurface";
    object      inlet.eMesh;
}
// * * * * * * * * * * * * * * * * * * * * * * * * * * * * * * * * * * * * * //


// points:

40
(
(-0.6179999709 -2.519000053 -0.1000000015)
(0 -2.395999908 -0.1000000015)
(0.6179999709 -2.519000053 -0.1000000015)
(-1.175999999 -2.874000072 -0.1000000015)
(1.175999999 -2.874000072 -0.1000000015)
(-1.618000031 -3.427000046 -0.1000000015)
(1.618000031 -3.427000046 -0.1000000015)
(-0.6179999709 -2.519000053 0)
(0 -2.395999908 0)
(-1.618000031 -3.427000046 0)
(-1.175999999 -2.874000072 0)
(-1.90199995 -4.124000072 -0.1000000015)
(1.90199995 -4.124000072 -0.1000000015)
(-2 -4.895999908 -0.1000000015)
(2 -4.895999908 -0.1000000015)
(1.90199995 -5.669000149 -0.1000000015)
(1.618000031 -6.366000175 -0.1000000015)
(1.175999999 -6.919000149 -0.1000000015)
(0.6179999709 -7.274000168 -0.1000000015)
(0 -7.395999908 -0.1000000015)
(-0.6179999709 -7.274000168 -0.1000000015)
(-1.175999999 -6.919000149 -0.1000000015)
(-1.618000031 -6.366000175 -0.1000000015)
(-1.90199995 -5.669000149 -0.1000000015)
(-1.90199995 -5.669000149 0)
(-2 -4.895999908 0)
(1.90199995 -5.669000149 0)
(1.618000031 -6.366000175 0)
(0 -7.395999908 0)
(-0.6179999709 -7.274000168 0)
(1.618000031 -3.427000046 0)
(1.90199995 -4.124000072 0)
(-1.90199995 -4.124000072 0)
(-1.618000031 -6.366000175 0)
(-1.175999999 -6.919000149 0)
(0.6179999709 -7.274000168 0)
(1.175999999 -6.919000149 0)
(2 -4.895999908 0)
(1.175999999 -2.874000072 0)
(0.6179999709 -2.519000053 0)
)


// edges:

40
(
(0 1)
(1 2)
(3 0)
(2 4)
(5 3)
(4 6)
(7 8)
(9 10)
(11 5)
(6 12)
(13 11)
(12 14)
(14 15)
(15 16)
(16 17)
(17 18)
(19 20)
(18 19)
(20 21)
(21 22)
(22 23)
(23 13)
(10 7)
(24 25)
(26 27)
(28 29)
(30 31)
(32 25)
(9 32)
(24 33)
(33 34)
(34 29)
(28 35)
(35 36)
(36 27)
(26 37)
(37 31)
(30 38)
(38 39)
(39 8)
)

// * * * * * * * * * * * * * * * * * * * * * * * * * * * * * * * * * * * * * //


// ************************************************************************* //
