/*--------------------------------*- C++ -*----------------------------------*\
| =========                 |                                                 |
| \\      /  F ield         | OpenFOAM: The Open Source CFD Toolbox           |
|  \\    /   O peration     | Version:  5.x                                   |
|   \\  /    A nd           | Web:      www.OpenFOAM.org                      |
|    \\/     M anipulation  |                                                 |
\*---------------------------------------------------------------------------*/
FoamFile
{
    version     2.0;
    format      ascii;
    class       featureEdgeMesh;
    location    "constant/triSurface";
    object      box.eMesh;
}
// * * * * * * * * * * * * * * * * * * * * * * * * * * * * * * * * * * * * * //


// points:

904
(
(-0.5199999809 -0.5009899735 2.00999999)
(-0.5199999809 0.5190100074 2.00999999)
(-0.5199999809 -0.5009899735 2)
(-0.5199999809 0.5190100074 2)
(-0.5199999809 -0.4950000048 -0.0003999999899)
(-0.5199999809 -0.5049999952 -0.0003999999899)
(-0.5199999809 -0.5049999952 1.999740005)
(-0.5199999809 -0.4950000048 1.999740005)
(-0.5099999905 0.5099999905 -0.009999999776)
(-0.5099999905 0.5099999905 -0.01999999955)
(-0.5099999905 -0.4900000095 -0.01999999955)
(-0.5099999905 -0.4900000095 -0.009999999776)
(-0.5099499822 0.5049999952 0)
(0.5099999905 -0.5049999952 1.999740005)
(0.5099999905 -0.5049999952 -0.0003999999899)
(0.5 0.5099999905 -0.009999999776)
(0.5 -0.4900000095 -0.009999999776)
(0.5 0.5099999905 -0.01999999955)
(0.5 -0.4900000095 -0.01999999955)
(0.5099999905 -0.4950000048 -0.0003999999899)
(0.5050100088 0.5049999952 0)
(0.4860500097 0.4950000048 0)
(0.4023599923 0.4950000048 0)
(-0.4102799892 0.4950000048 0)
(-0.4939599931 0.4950000048 0)
(0.5099999905 -0.5009899735 2)
(0.5099999905 0.5190100074 2)
(0.5099999905 -0.5009899735 2.00999999)
(0.5099999905 0.5190100074 2.00999999)
(0.5099999905 -0.4950000048 1.999740005)
(0.5099499822 0.4950000048 1.195000052)
(0.5099499822 0.4950000048 1.205000043)
(0.5051800013 0.5049999952 1.594609976)
(0.5051800013 0.5049999952 1.584609985)
(0.200000003 0.3993999958 1.674610019)
(0.0700000003 0.3993999958 1.674610019)
(0.200000003 0.2494000047 1.674610019)
(0.0700000003 0.2494000047 1.674610019)
(0.5051800013 -0.4850000143 1.594609976)
(-0.4102799892 -0.4850000143 1.584609985)
(0.1199999973 -0.4505999982 1.714609981)
(0.1199999973 -0.3305999935 1.714609981)
(0.2700000107 -0.4505999982 1.714609981)
(0.2700000107 -0.3305999935 1.714609981)
(0.1400000006 -0.1405999959 1.69461)
(0.1400000006 0.01940000057 1.69461)
(-0.05000000075 -0.1405999959 1.69461)
(0.4023599923 -0.4850000143 1.584609985)
(0.4860500097 -0.4850000143 1.594609976)
(0.4023599923 -0.4850000143 1.594609976)
(0.4860500097 -0.4850000143 1.584609985)
(0.5051800013 -0.4850000143 1.584609985)
(-0.05000000075 0.01940000057 1.69461)
(-0.150000006 0.2194000036 1.69461)
(-0.150000006 0.3393999934 1.69461)
(-0.05000000075 0.3393999934 1.69461)
(-0.05000000075 0.2194000036 1.69461)
(-0.3000000119 0.03940000013 1.734609962)
(-0.3000000119 0.1194000021 1.734609962)
(-0.1700000018 0.1194000021 1.734609962)
(-0.1700000018 0.03940000013 1.734609962)
(-0.4939599931 -0.4850000143 1.594609976)
(-0.4939599931 -0.4850000143 1.584609985)
(-0.4102799892 -0.4850000143 1.594609976)
(-0.01999999955 -0.3406000137 1.724609971)
(-0.01999999955 -0.4406000078 1.724609971)
(-0.1700000018 -0.3406000137 1.724609971)
(-0.1700000018 -0.4406000078 1.724609971)
(-0.1800000072 -0.2205999941 1.734609962)
(-0.1800000072 -0.1405999959 1.734609962)
(-0.3100000024 -0.1405999959 1.734609962)
(-0.3100000024 -0.2205999941 1.734609962)
(0.1899999976 0.09914000332 1.284999967)
(0.1899999976 0.3091399968 1.284999967)
(0.09000000358 0.09914000332 1.284999967)
(0.09000000358 0.3091399968 1.284999967)
(0.5091099739 0.474999994 0.8000000119)
(0.5091099739 0.474999994 0.7900000215)
(0.5091099739 -0.4850000143 0.8000000119)
(0.5091099739 -0.4850000143 0.7900000215)
(0.4860500097 0.474999994 0.7900000215)
(0.4860500097 0.474999994 0.8000000119)
(0.4023599923 0.474999994 0.8000000119)
(0.4023599923 0.474999994 0.7900000215)
(-0.4102799892 0.474999994 0.7900000215)
(-0.4102799892 -0.4850000143 0.8000000119)
(0.4023599923 -0.4850000143 0.8000000119)
(-0.02999999933 0.1191399992 1.294999957)
(-0.02999999933 0.3191399872 1.294999957)
(-0.1400000006 0.1191399992 1.294999957)
(-0.1400000006 0.3191399872 1.294999957)
(-0.2300000042 0.1091400012 1.294999957)
(-0.2300000042 0.2191399932 1.294999957)
(-0.349999994 0.1091400012 1.294999957)
(-0.349999994 0.2191399932 1.294999957)
(-0.4102799892 0.474999994 0.8000000119)
(-0.4939599931 0.474999994 0.7900000215)
(-0.4939599931 0.474999994 0.8000000119)
(-0.4939599931 -0.4850000143 0.7900000215)
(-0.4939599931 -0.4850000143 0.8000000119)
(-0.4102799892 -0.4850000143 0.7900000215)
(-0.0700000003 -0.08085999638 1.274999976)
(-0.0700000003 -0.2808600068 1.274999976)
(0.01999999955 -0.08085999638 1.274999976)
(-0.1199999973 -0.3608599901 1.264999986)
(-0.1199999973 -0.4808599949 1.264999986)
(-0.2399999946 -0.3608599901 1.264999986)
(-0.2399999946 -0.4808599949 1.264999986)
(-0.2399999946 -0.07085999846 1.274999976)
(-0.2399999946 -0.2208600044 1.274999976)
(-0.3600000143 -0.07085999846 1.274999976)
(-0.3600000143 -0.2208600044 1.274999976)
(0.2300000042 -0.2108599991 1.264999986)
(0.2300000042 -0.3508599997 1.264999986)
(0.1299999952 -0.2108599991 1.264999986)
(0.1299999952 -0.3508599997 1.264999986)
(0.01999999955 -0.2808600068 1.274999976)
(0.4860500097 -0.4850000143 0.8000000119)
(0.4023599923 -0.4850000143 0.7900000215)
(0.4860500097 -0.4850000143 0.7900000215)
(0.4860500097 0.4950200021 2)
(0.4950099885 0.4950000048 2)
(0.4023599923 0.4950200021 2)
(-0.4102799892 0.4950200021 2)
(-0.4939599931 0.4950200021 2)
(-0.4999499917 0.4950000048 2)
(0.4950099885 0.4950000048 1.594609976)
(0.4950099885 0.4950000048 1.205000043)
(0.4950099885 0.4950000048 1.584609985)
(0.4950099885 -0.4950000048 1.205000043)
(-0.4999499917 0.4950000048 1.594609976)
(-0.4999499917 0.4950000048 1.584609985)
(-0.4999499917 -0.4950000048 1.205000043)
(-0.4999499917 0.4950000048 1.205000043)
(0.4950099885 0.4950000048 1.195000052)
(0.5050100088 -0.4950000048 1.205000043)
(-0.4999499917 -0.4950000048 1.195000052)
(-0.4999499917 0.4950000048 1.195000052)
(-0.1499039978 -0.4950000048 0.8500000238)
(-0.1977729946 -0.4950000048 0.8413190246)
(0.4950099885 -0.4950000048 1.195000052)
(0.5050100088 -0.4950000048 1.195000052)
(-0.5099499822 -0.4950000048 2)
(-0.5099499822 0.5049999952 2)
(-0.5099499822 -0.4950000048 1.999740005)
(-0.5099499822 -0.4950000048 0)
(0.4023599923 -0.08804400265 0.3849999905)
(0.4023599923 -0.4950000048 0.3849999905)
(-0.4102799892 -0.4950000048 0.3849999905)
(-0.4999499917 -0.4950000048 0)
(0.4950099885 -0.4950000048 0)
(0.5050100088 -0.4950000048 0)
(0.3737370074 -0.08742640167 0.5414100289)
(0.3737370074 -0.08742640167 0.5900300145)
(0.3744539917 -0.07756129652 0.5900300145)
(0.4860500097 0.4950200021 0)
(0.4023599923 0.4950200021 0)
(0.4950099885 0.4950000048 0)
(0.3744539917 -0.07756129652 0.5414100289)
(-0.4939599931 0.4950200021 0)
(-0.4102799892 0.4950200021 0)
(0.4023599923 -0.08804400265 0.3950000107)
(-0.4999499917 0.4950000048 0)
(0.5050100088 0.5049999952 2)
(0.5099499822 -0.4950000048 1.195000052)
(0.5099499822 -0.4950000048 1.205000043)
(0.5050100088 0.5049999952 1.594609976)
(0.5050100088 0.5049999952 1.584609985)
(0.5050100088 -0.4950000048 2)
(0.4860500097 0.4950000048 2)
(0.4023599923 0.4950000048 2)
(-0.4102799892 0.4950000048 2)
(-0.4999499917 -0.4950000048 2)
(0.4950099885 -0.4950000048 2)
(-0.4939599931 0.4950000048 2)
(0.5050100088 -0.4950000048 1.999740005)
(0.4100199938 0.1068319976 1.880030036)
(0.4023599923 0.4950000048 1.594609976)
(0.4100199938 0.1068319976 1.83141005)
(0.409224987 0.09698239714 1.880030036)
(0.409224987 0.09698239714 1.83141005)
(0.4860500097 0.03496009856 1.594609976)
(0.200000003 0.3993999958 1.594609976)
(0.0700000003 0.2494000047 1.594609976)
(0.4860500097 0.4950000048 1.594609976)
(0.5050100088 -0.4850000143 1.584609985)
(0.5050100088 0.4950000048 1.205000043)
(0.5050100088 -0.4850000143 1.594609976)
(0.4860500097 0.4950000048 1.584609985)
(0.4023599923 0.4950000048 1.584609985)
(0.4860500097 0.4950000048 1.205000043)
(0.4023599923 0.4950000048 1.205000043)
(0.4023599923 0.1080439985 1.584609985)
(0.4860500097 0.03496009856 1.584609985)
(0.3888019919 0.1098100021 1.388589978)
(0.3888019919 0.1098100021 1.339980006)
(0.3880690038 0.09972389787 1.388589978)
(0.3880690038 0.09972389787 1.339980006)
(0.4023599923 0.1080439985 1.594609976)
(0.4860500097 0.03496009856 1.205000043)
(0.200000003 0.2494000047 1.594609976)
(0.0700000003 0.3993999958 1.594609976)
(0.1400000006 0.01940000057 1.594609976)
(-0.4102799892 0.4950000048 1.594609976)
(-0.05000000075 0.2194000036 1.594609976)
(-0.05000000075 0.3393999934 1.594609976)
(-0.4102799892 0.4950000048 1.584609985)
(0.4950099885 -0.4950000048 1.999740005)
(-0.4999499917 -0.4950000048 1.999740005)
(0.4950099885 -0.4850000143 1.594609976)
(0.4860500097 -0.4950000048 1.205000043)
(0.3941990137 -0.08933550119 1.880030036)
(0.3941990137 -0.08933550119 1.83141005)
(0.4860500097 -0.01496009994 1.594609976)
(0.395013988 -0.07922690362 1.880030036)
(0.395013988 -0.07922690362 1.83141005)
(0.4023599923 -0.08804400265 1.594609976)
(0.1199999973 -0.3305999935 1.594609976)
(0.1400000006 -0.1405999959 1.594609976)
(-0.05000000075 -0.1405999959 1.594609976)
(0.2700000107 -0.3305999935 1.594609976)
(0.4023599923 -0.08804400265 1.584609985)
(0.4860500097 -0.01496009994 1.584609985)
(0.4023599923 -0.08804400265 1.205000043)
(0.3744550049 -0.08754000068 1.388589978)
(0.3744550049 -0.08754000068 1.339980006)
(0.3751719892 -0.07767490298 1.388589978)
(0.3751719892 -0.07767490298 1.339980006)
(0.4950099885 -0.4850000143 1.584609985)
(0.2700000107 -0.4505999982 1.594609976)
(0.1199999973 -0.4505999982 1.594609976)
(-0.01999999955 -0.3406000137 1.594609976)
(-0.05000000075 0.01940000057 1.594609976)
(-0.150000006 0.3393999934 1.594609976)
(-0.3000000119 0.1194000021 1.594609976)
(-0.150000006 0.2194000036 1.594609976)
(-0.1700000018 0.03940000013 1.594609976)
(-0.1700000018 0.1194000021 1.594609976)
(-0.3000000119 0.03940000013 1.594609976)
(-0.1800000072 -0.1405999959 1.594609976)
(-0.1800000072 -0.2205999941 1.594609976)
(-0.4939599931 0.4950000048 1.594609976)
(-0.4939599931 0.4950000048 1.584609985)
(-0.3100000024 -0.1405999959 1.594609976)
(-0.4999499917 -0.4850000143 1.584609985)
(-0.4999499917 -0.4850000143 1.594609976)
(-0.01999999955 -0.4406000078 1.594609976)
(-0.1700000018 -0.3406000137 1.594609976)
(-0.1700000018 -0.4406000078 1.594609976)
(-0.3100000024 -0.2205999941 1.594609976)
(0.5050100088 0.4950000048 1.195000052)
(0.4023599923 0.4950000048 1.195000052)
(0.4860500097 0.4950000048 1.195000052)
(-0.07441999763 -0.06979999691 0.8128700256)
(0.4860500097 0.03496009856 1.195000052)
(0.4023599923 0.1080439985 1.195000052)
(0.3283169866 0.08799699694 1.010030031)
(0.339587003 0.08410760015 1.010030031)
(0.4950099885 0.474999994 0.8000000119)
(-0.4102799892 0.4950000048 1.195000052)
(0.4023599923 0.1080439985 1.205000043)
(0.1899999976 0.3091399968 1.205000043)
(0.4860500097 -0.01496009994 1.205000043)
(0.2952649891 0.04163639992 1.010030031)
(0.2920329869 -0.002847289899 1.010030031)
(-0.4102799892 -0.4950000048 1.195000052)
(0.1899999976 0.09914000332 1.205000043)
(0.09000000358 0.09914000332 1.205000043)
(0.09000000358 0.3091399968 1.205000043)
(-0.4102799892 0.4950000048 1.205000043)
(-0.02999999933 0.3191399872 1.205000043)
(0.4950099885 0.474999994 0.7900000215)
(0.5050100088 0.474999994 0.7900000215)
(0.5050100088 0.474999994 0.8000000119)
(0.4860500097 0.03496009856 0.8000000119)
(0.3283169866 0.08799699694 0.9579700232)
(0.339587003 0.08410760015 0.9579700232)
(0.4023599923 0.1080439985 0.8000000119)
(0.5050100088 -0.4850000143 0.8000000119)
(0.4860500097 -0.01496009994 0.8000000119)
(0.4023599923 0.1080439985 0.7900000215)
(0.5050100088 -0.4850000143 0.7900000215)
(0.4860500097 0.03496009856 0.7900000215)
(0.2920329869 -0.002847289899 0.9579700232)
(0.2952649891 0.04163639992 0.9579700232)
(0.2420299947 -0.3739300072 0.4199999869)
(-0.4999499917 -0.4850000143 0.7900000215)
(-0.4999499917 -0.4850000143 0.8000000119)
(0.4023599923 0.1080439985 0.3849999905)
(-0.4102799892 0.4950000048 0.3849999905)
(0.4023599923 0.4950000048 0.3849999905)
(0.3880670071 0.1096939966 0.5900300145)
(0.3880670071 0.1096939966 0.5414100289)
(0.3873339891 0.09960729629 0.5900300145)
(0.3873339891 0.09960729629 0.5414100289)
(0.4023599923 0.1080439985 0.3950000107)
(0.2079699934 -0.4819099903 0.4199999869)
(-0.02999999933 0.1191399992 1.205000043)
(-0.1400000006 0.1191399992 1.205000043)
(-0.1400000006 0.3191399872 1.205000043)
(-0.2300000042 0.1091400012 1.205000043)
(-0.2300000042 0.2191399932 1.205000043)
(-0.349999994 0.1091400012 1.205000043)
(-0.0700000003 -0.08085999638 1.205000043)
(0.01999999955 -0.08085999638 1.205000043)
(-0.4939599931 -0.4950000048 1.195000052)
(-0.4939599931 0.4950000048 1.195000052)
(-0.4939599931 0.4950000048 1.205000043)
(-0.349999994 0.2191399932 1.205000043)
(0.4023599923 -0.4950000048 0.3950000107)
(-0.4102799892 -0.4950000048 0.3950000107)
(-0.4102799892 0.4950000048 0.3950000107)
(-0.07999999821 -0.1747300029 0.8903499842)
(-0.4955900013 0.4950000048 0.3950000107)
(-0.4955900013 0.4950000048 0.3849999905)
(-0.4939599931 0.4950000048 0.3849999905)
(-0.4939599931 0.4950000048 0.3950000107)
(-0.4955900013 -0.4950000048 0.3950000107)
(-0.4955900013 -0.4950000048 0.3849999905)
(-0.4999499917 0.474999994 0.7900000215)
(-0.4939599931 -0.4950000048 0.3950000107)
(-0.4939599931 -0.4950000048 0.3849999905)
(-0.4999499917 0.474999994 0.8000000119)
(-0.4939599931 -0.4950000048 1.205000043)
(-0.4102799892 -0.4950000048 1.205000043)
(-0.2399999946 -0.4950000048 1.205000043)
(-0.0700000003 -0.2808600068 1.205000043)
(-0.1199999973 -0.3608599901 1.205000043)
(-0.1199999973 -0.4808599949 1.205000043)
(-0.2399999946 -0.4808599949 1.205000043)
(-0.2399999946 -0.3608599901 1.205000043)
(-0.2399999946 -0.07085999846 1.205000043)
(-0.2399999946 -0.2208600044 1.205000043)
(-0.3600000143 -0.07085999846 1.205000043)
(-0.3600000143 -0.2208600044 1.205000043)
(0.4023599923 -0.4950000048 1.195000052)
(-0.08557999879 -0.1647599936 0.8128700256)
(0.4023599923 0.4950000048 0.3950000107)
(0.4023599923 -0.08804400265 1.195000052)
(0.4860500097 -0.01496009994 1.195000052)
(0.4023599923 -0.08804400265 0.8000000119)
(0.4860500097 -0.01496009994 0.7900000215)
(0.3787670135 -0.08822239935 1.010030031)
(0.3794850111 -0.07835689932 1.010030031)
(0.4860500097 -0.4950000048 1.195000052)
(0.4023599923 -0.4950000048 1.205000043)
(0.2300000042 -0.2108599991 1.205000043)
(0.4950099885 -0.4850000143 0.7900000215)
(0.4950099885 -0.4850000143 0.8000000119)
(0.2300000042 -0.3508599997 1.205000043)
(0.1299999952 -0.2108599991 1.205000043)
(0.1299999952 -0.3508599997 1.205000043)
(0.01999999955 -0.2808600068 1.205000043)
(0.3787670135 -0.08822239935 0.9579700232)
(0.3794850111 -0.07835689932 0.9579700232)
(0.4023599923 -0.08804400265 0.7900000215)
(-0.07999999821 -0.06906999648 0.8128700256)
(-0.06900999695 -0.07197999954 0.8128700256)
(-0.07565999776 -0.08034999669 0.807370007)
(0.2498999983 -0.3781599998 0.4199999869)
(0.2336499989 -0.3713400066 0.4199999869)
(0.239289999 -0.3826200068 0.411379993)
(0.2163500041 -0.4844999909 0.4199999869)
(0.2001000047 -0.4776799977 0.4199999869)
(0.210710004 -0.4732199907 0.411379993)
(-0.0733499974 -0.1738599986 0.8903499842)
(-0.08664999902 -0.1738599986 0.8903499842)
(-0.07999999821 -0.1822299957 0.8824999928)
(-0.07999999821 -0.1654900014 0.8128700256)
(-0.09098999947 -0.1625799984 0.8128700256)
(-0.08433999866 -0.1542100012 0.807370007)
(-0.5099499822 -0.5009899735 2)
(0.3370800018 -0.06283000112 -0.009999999776)
(0.3171699941 -0.04292000085 -0.009999999776)
(0.3621799946 0.09561999887 -0.009999999776)
(0.3899999857 0.1000299975 -0.009999999776)
(0.3370800018 0.08282999694 -0.009999999776)
(0.4178200066 0.09561999887 -0.009999999776)
(0.4429199994 0.08282999694 -0.009999999776)
(0.4628300071 0.06291999668 -0.009999999776)
(0.4756200016 0.0378200002 -0.009999999776)
(0.4800300002 0.009999999776 -0.009999999776)
(0.4756200016 -0.01782000065 -0.009999999776)
(0.4628300071 -0.04292000085 -0.009999999776)
(0.4429199994 -0.06283000112 -0.009999999776)
(0.4178200066 -0.07562000304 -0.009999999776)
(0.3899999857 -0.08002000302 -0.009999999776)
(0.3621799946 -0.07562000304 -0.009999999776)
(0.3043799996 -0.01782000065 -0.009999999776)
(0.2999800146 0.009999999776 -0.009999999776)
(0.3043799996 0.0378200002 -0.009999999776)
(0.3171699941 0.06291999668 -0.009999999776)
(0.3043799996 0.0378200002 0)
(0.2999800146 0.009999999776 0)
(0.3171699941 0.06291999668 0)
(0.3370800018 0.08282999694 0)
(0.3091000021 0.06877999753 0)
(0.331220001 0.09089999646 0)
(0.3621799946 0.09561999887 0)
(0.359100014 0.1051099971 0)
(0.4208999872 0.1051099971 0)
(0.4487800002 0.09089999646 0)
(0.4429199994 0.08282999694 0)
(0.4178200066 0.09561999887 0)
(0.4708999991 0.06877999753 0)
(0.4628300071 0.06291999668 0)
(0.4756200016 0.0378200002 0)
(0.4851100147 0.04089999944 0)
(0.3899999857 0.1000299975 0)
(0.3899999857 0.1099999994 0)
(0.4800300002 0.009999999776 0)
(0.4900000095 0.009999999776 0)
(0.2948899865 0.04089999944 0)
(0.2899999917 0.009999999776 0)
(0.3091000021 -0.0487800017 0.5900300145)
(0.331220001 -0.07090000063 0.5900300145)
(0.3621799946 -0.07562000304 0.5900300145)
(0.3171699941 -0.04292000085 0.5900300145)
(0.3370800018 -0.06283000112 0.5900300145)
(0.3043799996 -0.01782000065 0.5900300145)
(0.2948899865 -0.02089999989 0.5900300145)
(0.359100014 -0.08511000127 0.5900300145)
(0 0.5049999952 0)
(0.3370800018 -0.06283000112 0.5414100289)
(0.3171699941 -0.04292000085 0.5414100289)
(0.359100014 -0.08511000127 0)
(0.331220001 -0.07090000063 0)
(0.3370800018 -0.06283000112 0)
(0.3621799946 -0.07562000304 0)
(0.3091000021 -0.0487800017 0)
(0.3043799996 -0.01782000065 0.5414100289)
(0.3091000021 -0.0487800017 0.5414100289)
(0.331220001 -0.07090000063 0.5414100289)
(0.2948899865 -0.02089999989 0.5414100289)
(0.3171699941 -0.04292000085 0)
(0.3043799996 -0.01782000065 0)
(0.359100014 -0.08511000127 0.5414100289)
(0.3621799946 -0.07562000304 0.5414100289)
(0.2948899865 -0.02089999989 0)
(0.4628300071 -0.04292000085 0)
(0.4756200016 -0.01782000065 0)
(0.4429199994 -0.06283000112 0)
(0.4708999991 -0.0487800017 0)
(0.4487800002 -0.07090000063 0)
(0.4178200066 -0.07562000304 0)
(0.4208999872 -0.08511000127 0)
(0.4851100147 -0.02089999989 0)
(0.3899999857 -0.08002000302 0)
(0.3899999857 -0.09000000358 0)
(0.5099499822 -0.5009899735 2)
(0.5050100088 0.5049999952 0.9830399752)
(0.2999800146 0.009999999776 0.5414100289)
(0.3899999857 0.1099999994 1.880030036)
(0.359100014 0.1051099971 1.880030036)
(0.3899999857 0.1099999994 1.83141005)
(0.331220001 0.09089999646 1.880030036)
(0.3091000021 0.06877999753 1.880030036)
(0.2948899865 0.04089999944 1.880030036)
(0.2899999917 0.009999999776 1.880030036)
(0.3171699941 0.06291999668 1.880030036)
(0.3043799996 0.0378200002 1.880030036)
(0.3370800018 0.08282999694 1.880030036)
(0.3621799946 0.09561999887 1.880030036)
(0.3899999857 0.1000299975 1.880030036)
(0.2999800146 0.009999999776 1.880030036)
(0.3043799996 -0.01782000065 1.880030036)
(0.3043799996 0.0378200002 1.83141005)
(0.3171699941 0.06291999668 1.83141005)
(0.3370800018 0.08282999694 1.83141005)
(0.359100014 0.1051099971 1.83141005)
(0.331220001 0.09089999646 1.83141005)
(0.3621799946 0.09561999887 1.83141005)
(0.3091000021 0.06877999753 1.83141005)
(0.3899999857 0.1000299975 1.83141005)
(0.2948899865 0.04089999944 1.83141005)
(0.2899999917 0.009999999776 1.83141005)
(0.2999800146 0.009999999776 1.83141005)
(0.359100014 0.1051099971 1.388589978)
(0.331220001 0.09089999646 1.388589978)
(0.3091000021 0.06877999753 1.388589978)
(0.3621799946 0.09561999887 1.388589978)
(0.3370800018 0.08282999694 1.388589978)
(0.359100014 0.1051099971 1.339980006)
(0.331220001 0.09089999646 1.339980006)
(0.3621799946 0.09561999887 1.339980006)
(0.3370800018 0.08282999694 1.339980006)
(0.3091000021 0.06877999753 1.339980006)
(0.2948899865 0.04089999944 1.388589978)
(0.2899999917 0.009999999776 1.388589978)
(0.3171699941 0.06291999668 1.388589978)
(0.3043799996 0.0378200002 1.388589978)
(0.2999800146 0.009999999776 1.388589978)
(0.3043799996 0.0378200002 1.339980006)
(0.3171699941 0.06291999668 1.339980006)
(0.2948899865 0.04089999944 1.339980006)
(0.2899999917 0.009999999776 1.339980006)
(0.2999800146 0.009999999776 1.339980006)
(0.2948899865 -0.02089999989 1.880030036)
(0.3091000021 -0.0487800017 1.880030036)
(0.3899999857 -0.09000000358 1.880030036)
(0.3899999857 -0.09000000358 1.83141005)
(0.331220001 -0.07090000063 1.880030036)
(0.359100014 -0.08511000127 1.880030036)
(0.3370800018 -0.06283000112 1.880030036)
(0.3621799946 -0.07562000304 1.880030036)
(0.3171699941 -0.04292000085 1.880030036)
(0.3899999857 -0.08002000302 1.880030036)
(0.3370800018 -0.06283000112 1.83141005)
(0.3171699941 -0.04292000085 1.83141005)
(0.3043799996 -0.01782000065 1.83141005)
(0.331220001 -0.07090000063 1.83141005)
(0.359100014 -0.08511000127 1.83141005)
(0.3091000021 -0.0487800017 1.83141005)
(0.3899999857 -0.08002000302 1.83141005)
(0.3621799946 -0.07562000304 1.83141005)
(0.2948899865 -0.02089999989 1.83141005)
(0.331220001 -0.07090000063 1.388589978)
(0.359100014 -0.08511000127 1.388589978)
(0.359100014 -0.08511000127 1.339980006)
(0.331220001 -0.07090000063 1.339980006)
(0.3621799946 -0.07562000304 1.388589978)
(0.3370800018 -0.06283000112 1.388589978)
(0.3171699941 -0.04292000085 1.388589978)
(0.3621799946 -0.07562000304 1.339980006)
(0.3370800018 -0.06283000112 1.339980006)
(0.2948899865 -0.02089999989 1.388589978)
(0.3091000021 -0.0487800017 1.388589978)
(0.3043799996 -0.01782000065 1.388589978)
(0.3171699941 -0.04292000085 1.339980006)
(0.3043799996 -0.01782000065 1.339980006)
(0.3091000021 -0.0487800017 1.339980006)
(0.2948899865 -0.02089999989 1.339980006)
(-0.05000000075 0 1.69461)
(0.3370800018 0.08282999694 1.010030031)
(0.3171699941 0.06291999668 1.010030031)
(0.3091000021 0.06877999753 1.010030031)
(0.3043799996 0.0378200002 1.010030031)
(0.2999800146 0.009999999776 1.010030031)
(0.3370800018 0.08282999694 0.9579700232)
(0.3171699941 0.06291999668 0.9579700232)
(0.2999800146 0.009999999776 0.9579700232)
(0.3043799996 -0.01782000065 0.9579700232)
(0.3043799996 0.0378200002 0.9579700232)
(0.3091000021 0.06877999753 0.9579700232)
(0.359100014 0.1051099971 0.5900300145)
(0.331220001 0.09089999646 0.5900300145)
(0.3091000021 0.06877999753 0.5900300145)
(0.2948899865 0.04089999944 0.5900300145)
(0.2899999917 0.009999999776 0.5900300145)
(0.3370800018 0.08282999694 0.5900300145)
(0.3171699941 0.06291999668 0.5900300145)
(0.3621799946 0.09561999887 0.5900300145)
(0.3043799996 0.0378200002 0.5900300145)
(0.2999800146 0.009999999776 0.5900300145)
(0.331220001 0.09089999646 0.5414100289)
(0.3091000021 0.06877999753 0.5414100289)
(0.3043799996 0.0378200002 0.5414100289)
(0.3171699941 0.06291999668 0.5414100289)
(0.3370800018 0.08282999694 0.5414100289)
(0.3621799946 0.09561999887 0.5414100289)
(0.359100014 0.1051099971 0.5414100289)
(0.2948899865 0.04089999944 0.5414100289)
(0.2899999917 0.009999999776 0.5414100289)
(0.331220001 -0.07090000063 1.010030031)
(0.359100014 -0.08511000127 1.010030031)
(0.3621799946 -0.07562000304 1.010030031)
(0.3370800018 -0.06283000112 1.010030031)
(0.3171699941 -0.04292000085 1.010030031)
(0.2948899865 -0.02089999989 1.010030031)
(0.3091000021 -0.0487800017 1.010030031)
(0.3043799996 -0.01782000065 1.010030031)
(0.359100014 -0.08511000127 0.9579700232)
(0.3370800018 -0.06283000112 0.9579700232)
(0.3171699941 -0.04292000085 0.9579700232)
(0.3621799946 -0.07562000304 0.9579700232)
(0.331220001 -0.07090000063 0.9579700232)
(0.3091000021 -0.0487800017 0.9579700232)
(0.2948899865 -0.02089999989 0.9579700232)
(0.3899999857 -0.09000000358 0.3849999905)
(0.359100014 -0.08511000127 0.3849999905)
(0.2948899865 -0.02089999989 0.3849999905)
(0.2999800146 -0.03088659979 0.3849999905)
(0.331220001 -0.07090000063 0.3849999905)
(0.3314999938 -0.07104290277 0.3849999905)
(0.3091000021 -0.0487800017 0.3849999905)
(0.3899999857 -0.08002000302 -0.01002999954)
(0.3621799946 -0.07562000304 -0.01002999954)
(0.3370800018 -0.06283000112 -0.01002999954)
(0.3171699941 -0.04292000085 -0.01002999954)
(0.3043799996 -0.01782000065 -0.01002999954)
(0.2999800146 0.009999999776 -0.01002999954)
(0.4756200016 -0.01782000065 -0.01002999954)
(0.4628300071 -0.04292000085 -0.01002999954)
(0.4429199994 -0.06283000112 -0.01002999954)
(0.4178200066 -0.07562000304 -0.01002999954)
(0.3043799996 0.0378200002 -0.01002999954)
(0.3171699941 0.06291999668 -0.01002999954)
(0.3370800018 0.08282999694 -0.01002999954)
(0.3621799946 0.09561999887 -0.01002999954)
(0.3899999857 0.1000299975 -0.01002999954)
(0.4178200066 0.09561999887 -0.01002999954)
(0.4429199994 0.08282999694 -0.01002999954)
(0.4628300071 0.06291999668 -0.01002999954)
(0.4756200016 0.0378200002 -0.01002999954)
(0.4800300002 0.009999999776 -0.01002999954)
(0.3091000021 -0.0487800017 0.7900000215)
(0.2999800146 -0.03088659979 0.7900000215)
(0.3899999857 -0.09000000358 0.3950000107)
(0.5050100088 -0.4950000048 1.146880031)
(0.2948899865 -0.02089999989 0.3950000107)
(0.2999800146 -0.03088659979 0.3950000107)
(0.3091000021 -0.0487800017 0.3950000107)
(0.3093099892 -0.04898979887 0.3950000107)
(0.331220001 -0.07090000063 0.3950000107)
(0.3314999938 -0.07104290277 0.3950000107)
(0.359100014 -0.08511000127 0.3950000107)
(0.3621799946 -0.07562000304 2.000020027)
(0.3899999857 -0.08002000302 2.000020027)
(0.3370800018 -0.06283000112 2.000020027)
(0.3171699941 -0.04292000085 2.000020027)
(0.3043799996 -0.01782000065 2.000020027)
(0.4628300071 -0.04292000085 2.000020027)
(0.4756200016 -0.01782000065 2.000020027)
(0.4429199994 -0.06283000112 2.000020027)
(0.4178200066 -0.07562000304 2.000020027)
(0.2999800146 0.009999999776 2.000020027)
(0.3043799996 0.0378200002 2.000020027)
(0.3171699941 0.06291999668 2.000020027)
(0.3370800018 0.08282999694 2.000020027)
(0.3621799946 0.09561999887 2.000020027)
(0.3899999857 0.1000299975 2.000020027)
(0.4178200066 0.09561999887 2.000020027)
(0.4429199994 0.08282999694 2.000020027)
(0.4628300071 0.06291999668 2.000020027)
(0.4756200016 0.0378200002 2.000020027)
(0.4800300002 0.009999999776 2.000020027)
(0.4900000095 0.009999999776 2)
(0.4851100147 0.04089999944 2)
(0.3899999857 0.1099999994 2)
(0.359100014 0.1051099971 2)
(0.4884169996 0 2)
(0.4950099885 0 2)
(0.4800300002 0.05086699873 2)
(0.4308669865 0.1000299975 2)
(0.4208999872 0.1051099971 2)
(0.4708999991 0.06877999753 2)
(0.4487800002 0.09089999646 2)
(0.4485000074 0.0910428986 2)
(0.3491330147 0.1000299975 2)
(0.331220001 0.09089999646 2)
(0.3089570105 0.06849969923 2)
(0.2999800146 0.05088660121 2)
(0.2948899865 0.04089999944 2)
(0.3091000021 0.06877999753 2)
(0.2899999917 0.009999999776 2)
(0.359100014 -0.08511000127 2)
(0.3899999857 -0.09000000358 2)
(0.4208999872 -0.08511000127 2)
(0.4487800002 -0.07090000063 2)
(0.4489899874 -0.07069019973 2)
(0.4708999991 -0.0487800017 2)
(0.4710429907 -0.04849969968 2)
(0.4800300002 -0.03086699918 2)
(0.4851100147 -0.02089999989 2)
(0.2948899865 -0.02089999989 2)
(0.2999800146 -0.03088659979 2)
(0.3091000021 -0.0487800017 2)
(0.3093099892 -0.04898979887 2)
(0.331220001 -0.07090000063 2)
(0.3314999938 -0.07104290277 2)
(0.4900000095 0.009999999776 1.594609976)
(0.3899999857 0.1099999994 1.594609976)
(0.359100014 0.1051099971 1.594609976)
(0.3491330147 0.1000299975 1.594609976)
(0.3089570105 0.06849969923 1.594609976)
(0.2999800146 0.05088660121 1.594609976)
(0.2948899865 0.04089999944 1.594609976)
(0.2899999917 0.009999999776 1.594609976)
(0.4950099885 0.4950000048 1.310719967)
(0.4950099885 0 1.205000043)
(0.3899999857 0.1099999994 1.584609985)
(0.4900000095 0.009999999776 1.584609985)
(0.359100014 0.1051099971 1.584609985)
(0.3491330147 0.1000299975 1.584609985)
(0.331220001 0.09089999646 1.584609985)
(0.4950099885 0 1.584609985)
(0.331220001 0.09089999646 1.594609976)
(0.4950099885 0 1.594609976)
(0.3091000021 0.06877999753 1.594609976)
(0.3089570105 0.06849969923 1.584609985)
(0.3091000021 0.06877999753 1.584609985)
(0.2899999917 0.009999999776 1.584609985)
(0.2948899865 0.04089999944 1.584609985)
(0.2948899865 -0.02089999989 1.584609985)
(0.2999800146 0.05088660121 1.584609985)
(0.3091000021 0.06877999753 1.205000043)
(0.3089570105 0.06849969923 1.205000043)
(0.3899999857 -0.09000000358 1.594609976)
(0.2948899865 -0.02089999989 1.594609976)
(0.2999800146 -0.03088659979 1.594609976)
(0.331220001 -0.07090000063 1.594609976)
(0.3314999938 -0.07104290277 1.594609976)
(0.359100014 -0.08511000127 1.594609976)
(0.3899999857 -0.09000000358 1.584609985)
(0.3314999938 -0.07104290277 1.584609985)
(0.331220001 -0.07090000063 1.584609985)
(0.3899999857 -0.09000000358 1.205000043)
(0.359100014 -0.08511000127 1.584609985)
(0.2119850069 -0.4950000048 0.4920189977)
(0.2147500068 -0.4950000048 0.4936769903)
(0.5050100088 -0.4950000048 1.310719967)
(0.3091000021 -0.0487800017 1.594609976)
(0.3093099892 -0.04898979887 1.594609976)
(0.2999800146 -0.03088659979 1.584609985)
(0.3093099892 -0.04898979887 1.584609985)
(0.3091000021 -0.0487800017 1.584609985)
(0.3091000021 -0.0487800017 1.205000043)
(0.3093099892 -0.04898979887 1.205000043)
(-0.05000000075 0 1.594609976)
(0.4950099885 0.4950000048 1.146880031)
(0.4915199876 0.4950000048 1.195000052)
(0.4915199876 0.4950000048 1.205000043)
(0.4900000095 0.009999999776 1.195000052)
(0.3899999857 0.1099999994 1.195000052)
(0.3491330147 0.1000299975 1.195000052)
(0.359100014 0.1051099971 1.195000052)
(0.359100014 0.1051099971 0.8000000119)
(0.3491330147 0.1000299975 0.8000000119)
(0.4950099885 0 1.195000052)
(0.331220001 0.09089999646 1.195000052)
(0.4900000095 0.009999999776 1.205000043)
(0.3899999857 0.1099999994 1.205000043)