/*--------------------------------*- C++ -*----------------------------------*\
| =========                 |                                                 |
| \\      /  F ield         | OpenFOAM: The Open Source CFD Toolbox           |
|  \\    /   O peration     | Version:  5.x                                   |
|   \\  /    A nd           | Web:      www.OpenFOAM.org                      |
|    \\/     M anipulation  |                                                 |
\*---------------------------------------------------------------------------*/
FoamFile
{
    version     2.0;
    format      ascii;
    class       featureEdgeMesh;
    location    "constant/triSurface";
    object      inlet.eMesh;
}
// * * * * * * * * * * * * * * * * * * * * * * * * * * * * * * * * * * * * * //


// points:

40
(
(0.4708999991 0.06877999753 -0.009999999776)
(0.4851100147 0.04089999944 -0.009999999776)
(0.4851100147 0.04089999944 -0.02999999933)
(0.4708999991 0.06877999753 -0.02999999933)
(0.2948899865 0.04089999944 -0.02999999933)
(0.2899999917 0.009999999776 -0.02999999933)
(0.2899999917 0.009999999776 -0.009999999776)
(0.2948899865 0.04089999944 -0.009999999776)
(0.4900000095 0.009999999776 -0.009999999776)
(0.4900000095 0.009999999776 -0.02999999933)
(0.3899999857 0.1099999994 -0.02999999933)
(0.359100014 0.1051099971 -0.02999999933)
(0.359100014 0.1051099971 -0.009999999776)
(0.3899999857 0.1099999994 -0.009999999776)
(0.4208999872 -0.08511000127 -0.02999999933)
(0.4487800002 -0.07090000063 -0.02999999933)
(0.4487800002 -0.07090000063 -0.009999999776)
(0.4208999872 -0.08511000127 -0.009999999776)
(0.3091000021 -0.0487800017 -0.02999999933)
(0.331220001 -0.07090000063 -0.02999999933)
(0.331220001 -0.07090000063 -0.009999999776)
(0.3091000021 -0.0487800017 -0.009999999776)
(0.3091000021 0.06877999753 -0.02999999933)
(0.3091000021 0.06877999753 -0.009999999776)
(0.4851100147 -0.02089999989 -0.009999999776)
(0.4851100147 -0.02089999989 -0.02999999933)
(0.4708999991 -0.0487800017 -0.02999999933)
(0.4708999991 -0.0487800017 -0.009999999776)
(0.331220001 0.09089999646 -0.02999999933)
(0.331220001 0.09089999646 -0.009999999776)
(0.2948899865 -0.02089999989 -0.009999999776)
(0.359100014 -0.08511000127 -0.009999999776)
(0.3899999857 -0.09000000358 -0.009999999776)
(0.2948899865 -0.02089999989 -0.02999999933)
(0.4208999872 0.1051099971 -0.02999999933)
(0.4208999872 0.1051099971 -0.009999999776)
(0.4487800002 0.09089999646 -0.02999999933)
(0.4487800002 0.09089999646 -0.009999999776)
(0.3899999857 -0.09000000358 -0.02999999933)
(0.359100014 -0.08511000127 -0.02999999933)
)


// edges:

40
(
(0 1)
(2 3)
(4 5)
(6 7)
(1 8)
(9 2)
(10 11)
(12 13)
(14 15)
(16 17)
(18 19)
(20 21)
(22 4)
(7 23)
(8 24)
(25 9)
(26 25)
(24 27)
(28 22)
(23 29)
(30 21)
(20 31)
(31 32)
(32 17)
(16 27)
(33 18)
(30 6)
(15 26)
(11 28)
(29 12)
(34 10)
(13 35)
(5 33)
(36 34)
(35 37)
(36 3)
(37 0)
(38 14)
(39 38)
(39 19)
)

// * * * * * * * * * * * * * * * * * * * * * * * * * * * * * * * * * * * * * //


// ************************************************************************* //
