/*--------------------------------*- C++ -*----------------------------------*\
| =========                 |                                                 |
| \\      /  F ield         | OpenFOAM: The Open Source CFD Toolbox           |
|  \\    /   O peration     | Version:  5.x                                   |
|   \\  /    A nd           | Web:      www.OpenFOAM.org                      |
|    \\/     M anipulation  |                                                 |
\*---------------------------------------------------------------------------*/
FoamFile
{
    version     2.0;
    format      ascii;
    class       extendedFeatureEdgeMesh;
    location    "constant/extendedFeatureEdgeMesh";
    object      art.extendedFeatureEdgeMesh;
}
// * * * * * * * * * * * * * * * * * * * * * * * * * * * * * * * * * * * * * //

// points

49
(
(-7 19 0)
(-7 -10 20)
(-7 -10 0)
(-7 19 20)
(-41 19 20)
(-41 19 0)
(-41 -10 0)
(-41 -10 20)
(-26.09 14.511 40)
(-28.878 13.09 40)
(-19.91 14.511 40)
(-23 15 40)
(-17.122 13.09 40)
(-14.91 10.878 40)
(-13.489 8.09 40)
(-13 5 40)
(-13.489 1.91 40)
(-14.91 -0.878 40)
(-31.09 10.878 40)
(-32.511 8.09 40)
(-33 5 40)
(-28.878 -3.09 40)
(-26.09 -4.511 40)
(-31.09 -0.878 40)
(-32.511 1.91 40)
(-23 -5 40)
(-19.91 -4.511 40)
(-17.122 -3.09 40)
(-13.489 8.09 20)
(-14.91 10.878 20)
(-17.122 13.09 20)
(-26.09 14.511 20)
(-28.878 13.09 20)
(-31.09 10.878 20)
(-32.511 8.09 20)
(-33 5 20)
(-32.511 1.91 20)
(-31.5375 0 20)
(-17.122 -3.09 20)
(-14.91 -0.878 20)
(-28.878 -3.09 20)
(-26.09 -4.511 20)
(-23 -5 20)
(-13.489 1.91 20)
(-13 5 20)
(-19.91 14.511 20)
(-23 15 20)
(-19.91 -4.511 20)
(-31.09 -0.878 20)
)

// edges

53
(
(2 0)
(1 2)
(3 1)
(0 3)
(5 6)
(4 5)
(7 4)
(6 7)
(8 9)
(10 11)
(12 10)
(13 12)
(11 8)
(14 13)
(15 14)
(16 15)
(17 16)
(9 18)
(19 20)
(18 19)
(21 22)
(23 21)
(24 23)
(20 24)
(22 25)
(25 26)
(27 17)
(26 27)
(7 1)
(3 4)
(2 6)
(5 0)
(28 29)
(29 30)
(31 32)
(32 33)
(33 34)
(35 36)
(36 37)
(38 39)
(40 41)
(41 42)
(43 44)
(44 28)
(30 45)
(45 46)
(46 31)
(34 35)
(42 47)
(47 38)
(39 43)
(37 48)
(48 40)
)

// concaveStart mixedStart nonFeatureStart
8 8 8
// internalStart flatStart openStart multipleStart
32 53 53 53
// normals

96
(
(1 0 0)
(0 0 -1)
(-0 -1 -0)
(1 0 0)
(0 0 1)
(0 1 0)
(-1 0 -0)
(0 0 -1)
(-0 1 0)
(-1 -0 0)
(0 0 1)
(0 -1 0)
(-0 0 1)
(-0.454103 0.890949 0)
(0 0 1)
(0.156307 0.987708 0)
(0 0 1)
(0.454103 0.890949 -0)
(0 0 1)
(0.707107 0.707107 0)
(-0 0 1)
(-0.156307 0.987708 0)
(0 0 1)
(0.890949 0.454103 0)
(0 0 1)
(0.987708 0.156307 -0)
(0 -0 1)
(0.987708 -0.156307 0)
(0 0 1)
(0.890949 -0.454103 0)
(0 0 1)
(-0.707107 0.707107 0)
(-0 0 1)
(-0.987709 0.156307 0)
(0 0 1)
(-0.890949 0.454103 0)
(0 -0 1)
(-0.454103 -0.890949 0)
(0 -0 1)
(-0.707107 -0.707107 0)
(0 -0 1)
(-0.890949 -0.454103 -5.33497e-08)
(0 -0 1)
(-0.987709 -0.156307 -0)
(0 0 1)
(-0.156307 -0.987708 -0)
(0 0 1)
(0.156307 -0.987708 0)
(0 0 1)
(0.707107 -0.707107 0)
(0 0 1)
(0.454103 -0.890949 0)
(0 0 1)
(0 0 1)
(0.890949 0.454103 -0)
(0 -0 1)
(0.707107 0.707107 -0)
(-0 0 1)
(-0.454103 0.890949 0)
(0 -0 1)
(-0.707107 0.707107 0)
(0 0 1)
(-0.890949 0.454103 0)
(0 0 1)
(-0.987709 -0.156307 0)
(0 0 1)
(-0.890949 -0.454104 0)
(0 0 1)
(0.707107 -0.707107 0)
(0 0 1)
(-0.454103 -0.890949 0)
(0 0 1)
(-0.156307 -0.987708 0)
(0 0 1)
(0.987708 -0.156307 0)
(0 0 1)
(0.987708 0.156307 -0)
(0 -0 1)
(0.454103 0.890949 0)
(0 -0 1)
(0.156307 0.987708 -0)
(0 -0 1)
(-0.156307 0.987708 0)
(0 0 1)
(-0.987709 0.156307 0)
(0 -0 1)
(0.156307 -0.987708 0)
(-0 0 1)
(0.454103 -0.890949 0)
(-0 0 1)
(0.890949 -0.454103 0)
(0 0 1)
(-0.89095 -0.454102 0)
(0 0 1)
(-0.707107 -0.707107 0)
(0 0 1)
)

// normal volume types

96
(
0
0
0
0
0
0
0
0
0
0
0
0
0
0
0
0
0
0
0
0
0
0
0
0
0
0
0
0
0
0
0
0
0
0
0
0
0
0
0
0
0
0
0
0
0
0
0
0
0
0
0
0
0
0
0
0
0
0
0
0
0
0
0
0
0
0
0
0
0
0
0
0
0
0
0
0
0
0
0
0
0
0
0
0
0
0
0
0
0
0
0
0
0
0
0
0
)

// normalDirections

53
(
2(1 -1)
2(1 -1)
2(1 -1)
2(1 -1)
2(1 -1)
2(1 -1)
2(1 -1)
2(1 -1)
2(1 -1)
2(1 -1)
2(1 -1)
2(1 -1)
2(1 -1)
2(1 -1)
2(1 -1)
2(1 -1)
2(1 -1)
2(1 -1)
2(1 -1)
2(1 -1)
2(1 -1)
2(1 -1)
2(1 -1)
2(1 -1)
2(1 -1)
2(1 -1)
2(1 -1)
2(1 -1)
2(1 -1)
2(1 -1)
2(1 -1)
2(1 -1)
2(1 -1)
2(1 -1)
2(1 -1)
2(1 -1)
2(1 -1)
2(1 -1)
2(1 -1)
2(1 -1)
2(1 -1)
2(1 -1)
2(1 -1)
2(1 -1)
2(1 -1)
2(1 -1)
2(1 -1)
2(1 -1)
2(1 -1)
2(1 -1)
2(1 -1)
2(1 -1)
2(1 -1)
)

// edgeNormals

53
(
2(0 1)
2(0 2)
2(3 4)
2(3 5)
2(6 7)
2(6 8)
2(9 10)
2(9 11)
2(12 13)
2(14 15)
2(16 17)
2(18 19)
2(20 21)
2(22 23)
2(24 25)
2(26 27)
2(28 29)
2(30 31)
2(32 33)
2(34 35)
2(36 37)
2(38 39)
2(40 41)
2(42 43)
2(44 45)
2(46 47)
2(48 49)
2(50 51)
2(52 2)
2(53 8)
2(7 11)
2(1 5)
2(54 55)
2(56 57)
2(58 59)
2(60 61)
2(62 63)
2(64 65)
2(66 67)
2(68 69)
2(70 71)
2(72 73)
2(74 75)
2(76 77)
2(78 79)
2(80 81)
2(82 83)
2(84 85)
2(86 87)
2(88 89)
2(90 91)
2(92 93)
2(94 95)
)

// featurePointNormals

8
(
3(0 1 5)
3(0 2 4)
3(0 1 2)
3(3 4 5)
3(6 8 10)
3(6 7 8)
3(6 7 11)
3(9 10 11)
)

// featurePointEdges

8
(
3(3 31 0)
3(2 28 1)
3(0 30 1)
3(2 29 3)
3(6 29 5)
3(4 31 5)
3(7 30 4)
3(6 28 7)
)

// regionEdges
0()


// ************************************************************************* //
